OS:Version,
  {439fedb6-b807-40dc-ab5d-efae455c4797},	!- Handle
  1.6.0;									!- Version Identifier

OS:Lights:Definition,
  {7d74576e-8f7a-4a95-ad94-1a9d0affc606},	!- Handle
  TH : คอมแพคฟลูออเรสเซนต์ BIOBULB BNU01D-11 เดย์ไลท์,	!- Name
  LightingLevel,								!- Design Level Calculation Method
  11,									!- Lighting Level {W}
  , 									!- Watts per Space Floor Area {W/m2}
  ; 									!- Watts per Person {W/person}

OS:Lights:Definition,
  {63b493d9-73d0-475d-baae-811ff9e21e2f},	!- Handle
  TH : คอมแพคฟลูออเรสเซนต์ ELEKTRA CDU 13 เดย์ไลท์,	!- Name
  LightingLevel,								!- Design Level Calculation Method
  13,									!- Lighting Level {W}
  , 									!- Watts per Space Floor Area {W/m2}
  ; 									!- Watts per Person {W/person}

OS:Lights:Definition,
  {9f3ca70a-579e-4282-9343-c84aee4beb22},	!- Handle
  TH : คอมแพคฟลูออเรสเซนต์ ELEKTRA CDU 13 วอร์มไวท์,	!- Name
  LightingLevel,								!- Design Level Calculation Method
  13,									!- Lighting Level {W}
  , 									!- Watts per Space Floor Area {W/m2}
  ; 									!- Watts per Person {W/person}

OS:Lights:Definition,
  {69ac9a0f-f008-486b-a3ae-e33286304631},	!- Handle
  TH : คอมแพคฟลูออเรสเซนต์ ELEKTRA MSL-2 11W/EX-D เดย์ไลท์,	!- Name
  LightingLevel,								!- Design Level Calculation Method
  11,									!- Lighting Level {W}
  , 									!- Watts per Space Floor Area {W/m2}
  ; 									!- Watts per Person {W/person}

OS:Lights:Definition,
  {9819ddd4-7f05-497a-a23e-dccb390e548b},	!- Handle
  TH : คอมแพคฟลูออเรสเซนต์ ELEKTRA MSL-2 11W/EX-WW วอร์มไวท์,	!- Name
  LightingLevel,								!- Design Level Calculation Method
  11,									!- Lighting Level {W}
  , 									!- Watts per Space Floor Area {W/m2}
  ; 									!- Watts per Person {W/person}

OS:Lights:Definition,
  {04238718-fbc4-40ae-9cbc-cda37498b779},	!- Handle
  TH : คอมแพคฟลูออเรสเซนต์ ELEKTRA MSL-2 15W/EX-D เดย์ไลท์,	!- Name
  LightingLevel,								!- Design Level Calculation Method
  15,									!- Lighting Level {W}
  , 									!- Watts per Space Floor Area {W/m2}
  ; 									!- Watts per Person {W/person}

OS:Lights:Definition,
  {62ccac54-af28-4e05-ae98-8897ffa6c6e1},	!- Handle
  TH : คอมแพคฟลูออเรสเซนต์ ELEKTRA MSL-2 15W/EX-WW วอร์มไวท์,	!- Name
  LightingLevel,								!- Design Level Calculation Method
  15,									!- Lighting Level {W}
  , 									!- Watts per Space Floor Area {W/m2}
  ; 									!- Watts per Person {W/person}

OS:Lights:Definition,
  {bf45b203-acd8-48f4-8e4c-22fac42c238b},	!- Handle
  TH : คอมแพคฟลูออเรสเซนต์ ELEKTRA MSL-2 9W/EX-D เดย์ไลท์,	!- Name
  LightingLevel,								!- Design Level Calculation Method
  9,									!- Lighting Level {W}
  , 									!- Watts per Space Floor Area {W/m2}
  ; 									!- Watts per Person {W/person}

OS:Lights:Definition,
  {83fb05b0-5bd2-4941-836d-a3cf0f0acfae},	!- Handle
  TH : คอมแพคฟลูออเรสเซนต์ ELEKTRA MSL-2 9W/EX-WW วอร์มไวท์,	!- Name
  LightingLevel,								!- Design Level Calculation Method
  9,									!- Lighting Level {W}
  , 									!- Watts per Space Floor Area {W/m2}
  ; 									!- Watts per Person {W/person}

OS:Lights:Definition,
  {2cbb4414-299b-4cca-a485-0ac5a67213ba},	!- Handle
  TH : คอมแพคฟลูออเรสเซนต์ EVE LIGHTING MINI 11W เดย์ไลท์,	!- Name
  LightingLevel,								!- Design Level Calculation Method
  11,									!- Lighting Level {W}
  , 									!- Watts per Space Floor Area {W/m2}
  ; 									!- Watts per Person {W/person}

OS:Lights:Definition,
  {50598f04-26f5-4dcb-a113-ae09941aa830},	!- Handle
  TH : คอมแพคฟลูออเรสเซนต์ EVE LIGHTING MINI 14W เดย์ไลท์,	!- Name
  LightingLevel,								!- Design Level Calculation Method
  14,									!- Lighting Level {W}
  , 									!- Watts per Space Floor Area {W/m2}
  ; 									!- Watts per Person {W/person}

OS:Lights:Definition,
  {67c23a96-8382-4830-a5fa-3ebc28777b4c},	!- Handle
  TH : คอมแพคฟลูออเรสเซนต์ EVE LIGHTING MINI 8W เดย์ไลท์,	!- Name
  LightingLevel,								!- Design Level Calculation Method
  8,									!- Lighting Level {W}
  , 									!- Watts per Space Floor Area {W/m2}
  ; 									!- Watts per Person {W/person}

OS:Lights:Definition,
  {080ea22e-d7a6-4e84-863e-80f03e121747},	!- Handle
  TH : คอมแพคฟลูออเรสเซนต์ EVE LIGHTING MINI X FIRE 13W เดย์ไลท์,	!- Name
  LightingLevel,								!- Design Level Calculation Method
  13,									!- Lighting Level {W}
  , 									!- Watts per Space Floor Area {W/m2}
  ; 									!- Watts per Person {W/person}

OS:Lights:Definition,
  {61a8b6d3-934c-43ce-87c3-d10f3a80e66d},	!- Handle
  TH : คอมแพคฟลูออเรสเซนต์ EVE LIGHTING MINI X FIRE 9W เดย์ไลท์,	!- Name
  LightingLevel,								!- Design Level Calculation Method
  9,									!- Lighting Level {W}
  , 									!- Watts per Space Floor Area {W/m2}
  ; 									!- Watts per Person {W/person}

OS:Lights:Definition,
  {688c2a0c-71ae-4375-b28e-c54b70d4ee66},	!- Handle
  TH : คอมแพคฟลูออเรสเซนต์ EVE LIGHTING STANDARD 11W เดย์ไลท์,	!- Name
  LightingLevel,								!- Design Level Calculation Method
  11,									!- Lighting Level {W}
  , 									!- Watts per Space Floor Area {W/m2}
  ; 									!- Watts per Person {W/person}

OS:Lights:Definition,
  {16449b5f-a184-450e-adf1-b7471e6a1c8d},	!- Handle
  TH : คอมแพคฟลูออเรสเซนต์ EVE LIGHTING STANDARD 13W วอร์มไวท์,	!- Name
  LightingLevel,								!- Design Level Calculation Method
  13,									!- Lighting Level {W}
  , 									!- Watts per Space Floor Area {W/m2}
  ; 									!- Watts per Person {W/person}

OS:Lights:Definition,
  {7fdeaaf0-382f-4668-a72e-d38b204f359d},	!- Handle
  TH : คอมแพคฟลูออเรสเซนต์ EVE LIGHTING STANDARD 13W เดย์ไลท์,	!- Name
  LightingLevel,								!- Design Level Calculation Method
  13,									!- Lighting Level {W}
  , 									!- Watts per Space Floor Area {W/m2}
  ; 									!- Watts per Person {W/person}

OS:Lights:Definition,
  {f10ae157-6c13-4635-a464-29c9dcd780ce},	!- Handle
  TH : คอมแพคฟลูออเรสเซนต์ EVE LIGHTING STANDARD 18W เดย์ไลท์,	!- Name
  LightingLevel,								!- Design Level Calculation Method
  18,									!- Lighting Level {W}
  , 									!- Watts per Space Floor Area {W/m2}
  ; 									!- Watts per Person {W/person}

OS:Lights:Definition,
  {324ba139-cf51-4a30-a807-1c6939d2c0d1},	!- Handle
  TH : คอมแพคฟลูออเรสเซนต์ EVE LIGHTING STANDARD 20W วอร์มไวท์,	!- Name
  LightingLevel,								!- Design Level Calculation Method
  20,									!- Lighting Level {W}
  , 									!- Watts per Space Floor Area {W/m2}
  ; 									!- Watts per Person {W/person}

OS:Lights:Definition,
  {70d91ccf-cdfc-48d5-999c-404d14a0e21a},	!- Handle
  TH : คอมแพคฟลูออเรสเซนต์ EVE LIGHTING STANDARD 20W เดย์ไลท์,	!- Name
  LightingLevel,								!- Design Level Calculation Method
  20,									!- Lighting Level {W}
  , 									!- Watts per Space Floor Area {W/m2}
  ; 									!- Watts per Person {W/person}

OS:Lights:Definition,
  {ed927770-67a6-4c1f-b2ef-d479bcfc478c},	!- Handle
  TH : คอมแพคฟลูออเรสเซนต์ EVE LIGHTING STANDARD 9W เดย์ไลท์,	!- Name
  LightingLevel,								!- Design Level Calculation Method
  9,									!- Lighting Level {W}
  , 									!- Watts per Space Floor Area {W/m2}
  ; 									!- Watts per Person {W/person}

OS:Lights:Definition,
  {9bd39e63-77f8-41fa-a44c-66f051290025},	!- Handle
  TH : คอมแพคฟลูออเรสเซนต์ EVE LIGHTING X FIRE 11W เดย์ไลท์,	!- Name
  LightingLevel,								!- Design Level Calculation Method
  11,									!- Lighting Level {W}
  , 									!- Watts per Space Floor Area {W/m2}
  ; 									!- Watts per Person {W/person}

OS:Lights:Definition,
  {92ae14ae-a1c5-45eb-b19f-22a0f9a84960},	!- Handle
  TH : คอมแพคฟลูออเรสเซนต์ EVE LIGHTING X-FIRE 15W เดย์ไลท์,	!- Name
  LightingLevel,								!- Design Level Calculation Method
  15,									!- Lighting Level {W}
  , 									!- Watts per Space Floor Area {W/m2}
  ; 									!- Watts per Person {W/person}

OS:Lights:Definition,
  {3e429425-1571-4a93-9e1f-b802c57e1b31},	!- Handle
  TH : คอมแพคฟลูออเรสเซนต์ EVE LIGHTING X-FIRE 20W เดย์ไลท์,	!- Name
  LightingLevel,								!- Design Level Calculation Method
  20,									!- Lighting Level {W}
  , 									!- Watts per Space Floor Area {W/m2}
  ; 									!- Watts per Person {W/person}

OS:Lights:Definition,
  {b9140649-b756-4f52-b6db-a0e22b6a023f},	!- Handle
  TH : คอมแพคฟลูออเรสเซนต์ EVE LIGHTING STANDARD CFL เดย์ไลท์,	!- Name
  LightingLevel,								!- Design Level Calculation Method
  8,									!- Lighting Level {W}
  , 									!- Watts per Space Floor Area {W/m2}
  ; 									!- Watts per Person {W/person}

OS:Lights:Definition,
  {4ddbbeb6-e5d5-4d8c-9982-d391df821e8a},	!- Handle
  TH : คอมแพคฟลูออเรสเซนต์ EVE LIGHTING STANDARD CFL เดย์ไลท์,	!- Name
  LightingLevel,								!- Design Level Calculation Method
  14,									!- Lighting Level {W}
  , 									!- Watts per Space Floor Area {W/m2}
  ; 									!- Watts per Person {W/person}

OS:Lights:Definition,
  {451a48d4-6979-4bd7-af4c-51100c5523f1},	!- Handle
  TH : คอมแพคฟลูออเรสเซนต์ GATA TMI 2U 11W เดย์ไลท์,	!- Name
  LightingLevel,								!- Design Level Calculation Method
  11,									!- Lighting Level {W}
  , 									!- Watts per Space Floor Area {W/m2}
  ; 									!- Watts per Person {W/person}

OS:Lights:Definition,
  {dd46fcdd-73aa-4b4e-bdc0-64124d8f8ea0},	!- Handle
  TH : คอมแพคฟลูออเรสเซนต์ GATA TMI 2U 14W เดย์ไลท์,	!- Name
  LightingLevel,								!- Design Level Calculation Method
  14,									!- Lighting Level {W}
  , 									!- Watts per Space Floor Area {W/m2}
  ; 									!- Watts per Person {W/person}

OS:Lights:Definition,
  {ca09b3b8-96a8-4de1-9814-cb5db1cd08fc},	!- Handle
  TH : คอมแพคฟลูออเรสเซนต์ GATA TMI 2U 14W วอร์มไวท์,	!- Name
  LightingLevel,								!- Design Level Calculation Method
  14,									!- Lighting Level {W}
  , 									!- Watts per Space Floor Area {W/m2}
  ; 									!- Watts per Person {W/person}

OS:Lights:Definition,
  {16345b47-7a99-448f-8a83-0273d8506b92},	!- Handle
  TH : คอมแพคฟลูออเรสเซนต์ GATA TMI 3U 14W เดย์ไลท์,	!- Name
  LightingLevel,								!- Design Level Calculation Method
  14,									!- Lighting Level {W}
  , 									!- Watts per Space Floor Area {W/m2}
  ; 									!- Watts per Person {W/person}

OS:Lights:Definition,
  {4a510352-1fc4-491f-8a01-d0674d44606f},	!- Handle
  TH : คอมแพคฟลูออเรสเซนต์ GATA TMI 3U 14W วอร์มไวท์,	!- Name
  LightingLevel,								!- Design Level Calculation Method
  14,									!- Lighting Level {W}
  , 									!- Watts per Space Floor Area {W/m2}
  ; 									!- Watts per Person {W/person}

OS:Lights:Definition,
  {4bf21dfb-9906-48e5-929c-ebf42b800fed},	!- Handle
  TH : คอมแพคฟลูออเรสเซนต์ GATA TMI 3U 18W เดย์ไลท์,	!- Name
  LightingLevel,								!- Design Level Calculation Method
  18,									!- Lighting Level {W}
  , 									!- Watts per Space Floor Area {W/m2}
  ; 									!- Watts per Person {W/person}

OS:Lights:Definition,
  {1997faa5-85c5-475a-b465-1f976e9c26c3},	!- Handle
  TH : คอมแพคฟลูออเรสเซนต์ GATA TMI 3U 18W วอร์มไวท์,	!- Name
  LightingLevel,								!- Design Level Calculation Method
  18,									!- Lighting Level {W}
  , 									!- Watts per Space Floor Area {W/m2}
  ; 									!- Watts per Person {W/person}

OS:Lights:Definition,
  {ff0e73cf-235f-4d7b-8c07-b6278c350454},	!- Handle
  TH : คอมแพคฟลูออเรสเซนต์ GATA TMI SPI 12W วอร์มไวท์,	!- Name
  LightingLevel,								!- Design Level Calculation Method
  12,									!- Lighting Level {W}
  , 									!- Watts per Space Floor Area {W/m2}
  ; 									!- Watts per Person {W/person}

OS:Lights:Definition,
  {477ea57c-f5b3-4799-bee5-771be135ff13},	!- Handle
  TH : คอมแพคฟลูออเรสเซนต์ GATA TMI SPI 15W วอร์มไวท์,	!- Name
  LightingLevel,								!- Design Level Calculation Method
  15,									!- Lighting Level {W}
  , 									!- Watts per Space Floor Area {W/m2}
  ; 									!- Watts per Person {W/person}

OS:Lights:Definition,
  {8bd46043-475c-4172-b945-bd810544f222},	!- Handle
  TH : คอมแพคฟลูออเรสเซนต์ GATA TMI SPI 20W เดย์ไลท์,	!- Name
  LightingLevel,								!- Design Level Calculation Method
  20,									!- Lighting Level {W}
  , 									!- Watts per Space Floor Area {W/m2}
  ; 									!- Watts per Person {W/person}

OS:Lights:Definition,
  {9ba58c9d-86ad-4382-ad11-d3b58e0ac804},	!- Handle
  TH : คอมแพคฟลูออเรสเซนต์ GATA TMI SPI 20W วอร์มไวท์,	!- Name
  LightingLevel,								!- Design Level Calculation Method
  20,									!- Lighting Level {W}
  , 									!- Watts per Space Floor Area {W/m2}
  ; 									!- Watts per Person {W/person}

OS:Lights:Definition,
  {6eb98ca0-6cc1-4126-8c9e-d8fff385aa07},	!- Handle
  TH : คอมแพคฟลูออเรสเซนต์ GATA TMI SPI 23W เดย์ไลท์,	!- Name
  LightingLevel,								!- Design Level Calculation Method
  23,									!- Lighting Level {W}
  , 									!- Watts per Space Floor Area {W/m2}
  ; 									!- Watts per Person {W/person}

OS:Lights:Definition,
  {0de19855-2d50-438d-9121-ca7c196117a6},	!- Handle
  TH : คอมแพคฟลูออเรสเซนต์ GATA TMI SPI 23W วอร์มไวท์,	!- Name
  LightingLevel,								!- Design Level Calculation Method
  23,									!- Lighting Level {W}
  , 									!- Watts per Space Floor Area {W/m2}
  ; 									!- Watts per Person {W/person}

OS:Lights:Definition,
  {154a12f2-d8ac-4175-bcf0-b6170e2ef25d},	!- Handle
  TH : คอมแพคฟลูออเรสเซนต์ GATA TMI SPI 8W เดย์ไลท์,	!- Name
  LightingLevel,								!- Design Level Calculation Method
  8,									!- Lighting Level {W}
  , 									!- Watts per Space Floor Area {W/m2}
  ; 									!- Watts per Person {W/person}

OS:Lights:Definition,
  {b9ac14ee-0556-4c2f-9522-1e8d36666fd3},	!- Handle
  TH : คอมแพคฟลูออเรสเซนต์ GATA TMI SPI 8W วอร์มไวท์,	!- Name
  LightingLevel,								!- Design Level Calculation Method
  8,									!- Lighting Level {W}
  , 									!- Watts per Space Floor Area {W/m2}
  ; 									!- Watts per Person {W/person}

OS:Lights:Definition,
  {47d9035a-6486-4ef7-a3a0-e7fc5437a609},	!- Handle
  TH : คอมแพคฟลูออเรสเซนต์ GE FLE11/DBX/827 วอร์มไวท์,	!- Name
  LightingLevel,								!- Design Level Calculation Method
  11,									!- Lighting Level {W}
  , 									!- Watts per Space Floor Area {W/m2}
  ; 									!- Watts per Person {W/person}

OS:Lights:Definition,
  {549cb9a2-06f0-4ee9-80a1-f6e9c04d00d0},	!- Handle
  TH : คอมแพคฟลูออเรสเซนต์ GE FLE11/DBX/864 เดย์ไลท์,	!- Name
  LightingLevel,								!- Design Level Calculation Method
  11,									!- Lighting Level {W}
  , 									!- Watts per Space Floor Area {W/m2}
  ; 									!- Watts per Person {W/person}

OS:Lights:Definition,
  {bd14e290-dc36-4f45-936f-fdf1674cee28},	!- Handle
  TH : คอมแพคฟลูออเรสเซนต์ GE FLE12HLX/827/E27/T2/BX 220-240V วอร์มไวท์,	!- Name
  LightingLevel,								!- Design Level Calculation Method
  12,									!- Lighting Level {W}
  , 									!- Watts per Space Floor Area {W/m2}
  ; 									!- Watts per Person {W/person}

OS:Lights:Definition,
  {a8e2bbcd-18b3-47c0-bac2-b03e0cdd2cf5},	!- Handle
  TH : คอมแพคฟลูออเรสเซนต์ GE FLE12HLX/865/E27/T2/BX 220-240V เดย์ไลท์,	!- Name
  LightingLevel,								!- Design Level Calculation Method
  12,									!- Lighting Level {W}
  , 									!- Watts per Space Floor Area {W/m2}
  ; 									!- Watts per Person {W/person}

OS:Lights:Definition,
  {d5db859c-035c-4c24-9571-12fffe3f3fe7},	!- Handle
  TH : คอมแพคฟลูออเรสเซนต์ GE FLE14HLX/827 Edison Plus วอร์มไวท์,	!- Name
  LightingLevel,								!- Design Level Calculation Method
  14,									!- Lighting Level {W}
  , 									!- Watts per Space Floor Area {W/m2}
  ; 									!- Watts per Person {W/person}

OS:Lights:Definition,
  {fc370b77-e06f-44a9-9223-d1eccdf20b88},	!- Handle
  TH : คอมแพคฟลูออเรสเซนต์ GE FLE14HLX/827/E27/T3 Edison Plus วอร์มไวท์,	!- Name
  LightingLevel,								!- Design Level Calculation Method
  14,									!- Lighting Level {W}
  , 									!- Watts per Space Floor Area {W/m2}
  ; 									!- Watts per Person {W/person}

OS:Lights:Definition,
  {309c4c9f-ae0c-4e69-be9d-9c1d22ded7d7},	!- Handle
  TH : คอมแพคฟลูออเรสเซนต์ GE FLE14HLX/865 Edison Plus เดย์ไลท์,	!- Name
  LightingLevel,								!- Design Level Calculation Method
  14,									!- Lighting Level {W}
  , 									!- Watts per Space Floor Area {W/m2}
  ; 									!- Watts per Person {W/person}

OS:Lights:Definition,
  {38f9f00b-b0fe-4926-ad50-475bad0c4bb9},	!- Handle
  TH : คอมแพคฟลูออเรสเซนต์ GE FLE14HLX/865/E27/T3 Edison Plus เดย์ไลท์,	!- Name
  LightingLevel,								!- Design Level Calculation Method
  14,									!- Lighting Level {W}
  , 									!- Watts per Space Floor Area {W/m2}
  ; 									!- Watts per Person {W/person}

OS:Lights:Definition,
  {022873ec-cbdc-41eb-be81-6e8c935b9d01},	!- Handle
  TH : คอมแพคฟลูออเรสเซนต์ GE FLE15/TBX/864 เดย์ไลท์,	!- Name
  LightingLevel,								!- Design Level Calculation Method
  15,									!- Lighting Level {W}
  , 									!- Watts per Space Floor Area {W/m2}
  ; 									!- Watts per Person {W/person}

OS:Lights:Definition,
  {26fe61a7-3a56-4acb-95e1-cbb4218286f9},	!- Handle
  TH : คอมแพคฟลูออเรสเซนต์ GE FLE15/TBX/865 เดย์ไลท์,	!- Name
  LightingLevel,								!- Design Level Calculation Method
  15,									!- Lighting Level {W}
  , 									!- Watts per Space Floor Area {W/m2}
  ; 									!- Watts per Person {W/person}

OS:Lights:Definition,
  {159b64a8-6094-42a3-88dd-621aae7175a9},	!- Handle
  TH : คอมแพคฟลูออเรสเซนต์ GE FLE20/TBX/864 เดย์ไลท์,	!- Name
  LightingLevel,								!- Design Level Calculation Method
  20,									!- Lighting Level {W}
  , 									!- Watts per Space Floor Area {W/m2}
  ; 									!- Watts per Person {W/person}

OS:Lights:Definition,
  {71387cee-0842-4b18-8579-1d0493e62b15},	!- Handle
  TH : คอมแพคฟลูออเรสเซนต์ GE FLE20HLX/827/E27/T3 220-240V วอร์มไวท์,	!- Name
  LightingLevel,								!- Design Level Calculation Method
  20,									!- Lighting Level {W}
  , 									!- Watts per Space Floor Area {W/m2}
  ; 									!- Watts per Person {W/person}

OS:Lights:Definition,
  {58a0d340-0fe8-4e97-b08d-c3b0a289a23d},	!- Handle
  TH : คอมแพคฟลูออเรสเซนต์ GE FLE20HLX/865/E27/T3 220-240V เดย์ไลท์,	!- Name
  LightingLevel,								!- Design Level Calculation Method
  20,									!- Lighting Level {W}
  , 									!- Watts per Space Floor Area {W/m2}
  ; 									!- Watts per Person {W/person}

OS:Lights:Definition,
  {8666e37f-b462-45a3-b337-962d0b8aeaca},	!- Handle
  TH : คอมแพคฟลูออเรสเซนต์ GE FLE8DBX/827/E27/T3 220-240V วอร์มไวท์,	!- Name
  LightingLevel,								!- Design Level Calculation Method
  8,									!- Lighting Level {W}
  , 									!- Watts per Space Floor Area {W/m2}
  ; 									!- Watts per Person {W/person}

OS:Lights:Definition,
  {f3196eb6-67ec-4578-8f59-d38cdd22fe08},	!- Handle
  TH : คอมแพคฟลูออเรสเซนต์ GE FLE8DBX/865/E27/T3 220-240V เดย์ไลท์,	!- Name
  LightingLevel,								!- Design Level Calculation Method
  8,									!- Lighting Level {W}
  , 									!- Watts per Space Floor Area {W/m2}
  ; 									!- Watts per Person {W/person}

OS:Lights:Definition,
  {773a3c37-f30c-4029-b3f4-7d1c83731298},	!- Handle
  TH : คอมแพคฟลูออเรสเซนต์ GE FLE8HLX/827/E27/T2/BX 220-240V วอร์มไวท์,	!- Name
  LightingLevel,								!- Design Level Calculation Method
  8,									!- Lighting Level {W}
  , 									!- Watts per Space Floor Area {W/m2}
  ; 									!- Watts per Person {W/person}

OS:Lights:Definition,
  {40a06867-1bef-40c0-8b8c-f085fbc2c6a4},	!- Handle
  TH : คอมแพคฟลูออเรสเซนต์ GE FLE8HLX/865/E27/T2/BX 220-240V เดย์ไลท์,	!- Name
  LightingLevel,								!- Design Level Calculation Method
  8,									!- Lighting Level {W}
  , 									!- Watts per Space Floor Area {W/m2}
  ; 									!- Watts per Person {W/person}

OS:Lights:Definition,
  {4dea8649-b330-43fa-b6fc-5cb193cd374a},	!- Handle
  TH : คอมแพคฟลูออเรสเซนต์ GE FLE9/DBX/864 เดย์ไลท์,	!- Name
  LightingLevel,								!- Design Level Calculation Method
  9,									!- Lighting Level {W}
  , 									!- Watts per Space Floor Area {W/m2}
  ; 									!- Watts per Person {W/person}

OS:Lights:Definition,
  {cb2b7cc1-4c7b-483a-9214-5acfe68dd0db},	!- Handle
  TH : คอมแพคฟลูออเรสเซนต์ GE FLE9/TBX/865 เดย์ไลท์,	!- Name
  LightingLevel,								!- Design Level Calculation Method
  9,									!- Lighting Level {W}
  , 									!- Watts per Space Floor Area {W/m2}
  ; 									!- Watts per Person {W/person}

OS:Lights:Definition,
  {22756df4-37f9-4ae1-8911-15c397c66fe6},	!- Handle
  TH : คอมแพคฟลูออเรสเซนต์ GE FLE9HLX/827/E27/T3 220-240V วอร์มไวท์,	!- Name
  LightingLevel,								!- Design Level Calculation Method
  9,									!- Lighting Level {W}
  , 									!- Watts per Space Floor Area {W/m2}
  ; 									!- Watts per Person {W/person}

OS:Lights:Definition,
  {d5cde4ff-bb37-46ff-a674-3f3f45ebbcc2},	!- Handle
  TH : คอมแพคฟลูออเรสเซนต์ GE FLE9HLX/865/E27/T3 220-240V เดย์ไลท์,	!- Name
  LightingLevel,								!- Design Level Calculation Method
  9,									!- Lighting Level {W}
  , 									!- Watts per Space Floor Area {W/m2}
  ; 									!- Watts per Person {W/person}

OS:Lights:Definition,
  {84c287e8-1cac-4204-8942-6b2fafee4cb9},	!- Handle
  TH : คอมแพคฟลูออเรสเซนต์ HI-TEK หลอดประหยัดไฟ วอร์มไวท์,	!- Name
  LightingLevel,								!- Design Level Calculation Method
  11,									!- Lighting Level {W}
  , 									!- Watts per Space Floor Area {W/m2}
  ; 									!- Watts per Person {W/person}

OS:Lights:Definition,
  {a7a39925-c650-4633-b5dc-fd1da9d247d9},	!- Handle
  TH : คอมแพคฟลูออเรสเซนต์ LAMPTAN 11W/2U วอร์มไวท์,	!- Name
  LightingLevel,								!- Design Level Calculation Method
  11,									!- Lighting Level {W}
  , 									!- Watts per Space Floor Area {W/m2}
  ; 									!- Watts per Person {W/person}

OS:Lights:Definition,
  {19fb6346-1556-4283-9781-dc6cfaecc62e},	!- Handle
  TH : คอมแพคฟลูออเรสเซนต์ LAMPTAN 13W/3U เดย์ไลท์,	!- Name
  LightingLevel,								!- Design Level Calculation Method
  13,									!- Lighting Level {W}
  , 									!- Watts per Space Floor Area {W/m2}
  ; 									!- Watts per Person {W/person}

OS:Lights:Definition,
  {a8a840d1-97ed-4c76-8625-202848204afa},	!- Handle
  TH : คอมแพคฟลูออเรสเซนต์ LAMPTAN 13W/3U วอร์มไวท์,	!- Name
  LightingLevel,								!- Design Level Calculation Method
  13,									!- Lighting Level {W}
  , 									!- Watts per Space Floor Area {W/m2}
  ; 									!- Watts per Person {W/person}

OS:Lights:Definition,
  {7ed2e227-0cef-48c8-b35f-9714039428dc},	!- Handle
  TH : คอมแพคฟลูออเรสเซนต์ LAMPTAN 20W/3U เดย์ไลท์,	!- Name
  LightingLevel,								!- Design Level Calculation Method
  20,									!- Lighting Level {W}
  , 									!- Watts per Space Floor Area {W/m2}
  ; 									!- Watts per Person {W/person}

OS:Lights:Definition,
  {3e33597c-8081-420a-9ab0-72835ff03da0},	!- Handle
  TH : คอมแพคฟลูออเรสเซนต์ LAMPTAN 20W/3U วอร์มไวท์,	!- Name
  LightingLevel,								!- Design Level Calculation Method
  20,									!- Lighting Level {W}
  , 									!- Watts per Space Floor Area {W/m2}
  ; 									!- Watts per Person {W/person}

OS:Lights:Definition,
  {db5b7388-29f7-4c03-8865-08689cb41971},	!- Handle
  TH : คอมแพคฟลูออเรสเซนต์ LAMPTAN 20W-SP เดย์ไลท์,	!- Name
  LightingLevel,								!- Design Level Calculation Method
  20,									!- Lighting Level {W}
  , 									!- Watts per Space Floor Area {W/m2}
  ; 									!- Watts per Person {W/person}

OS:Lights:Definition,
  {339b88ad-6931-44ec-8c0a-d2be0b3d6d91},	!- Handle
  TH : คอมแพคฟลูออเรสเซนต์ LAMPTAN 20W-SP วอร์มไวท์,	!- Name
  LightingLevel,								!- Design Level Calculation Method
  20,									!- Lighting Level {W}
  , 									!- Watts per Space Floor Area {W/m2}
  ; 									!- Watts per Person {W/person}

OS:Lights:Definition,
  {e98da015-ccf7-4f7a-baef-3c6f5eb66f30},	!- Handle
  TH : คอมแพคฟลูออเรสเซนต์ LAMPTAN 24W-SP เดย์ไลท์,	!- Name
  LightingLevel,								!- Design Level Calculation Method
  24,									!- Lighting Level {W}
  , 									!- Watts per Space Floor Area {W/m2}
  ; 									!- Watts per Person {W/person}

OS:Lights:Definition,
  {da26be83-1d40-42c6-ae25-d3b32fe7f2ea},	!- Handle
  TH : คอมแพคฟลูออเรสเซนต์ LAMPTAN 24W-SP วอร์มไวท์,	!- Name
  LightingLevel,								!- Design Level Calculation Method
  24,									!- Lighting Level {W}
  , 									!- Watts per Space Floor Area {W/m2}
  ; 									!- Watts per Person {W/person}

OS:Lights:Definition,
  {8bb06ece-324e-4284-ad06-3fd53bae16c5},	!- Handle
  TH : คอมแพคฟลูออเรสเซนต์ LAMPTAN 7W/2U เดย์ไลท์,	!- Name
  LightingLevel,								!- Design Level Calculation Method
  7,									!- Lighting Level {W}
  , 									!- Watts per Space Floor Area {W/m2}
  ; 									!- Watts per Person {W/person}

OS:Lights:Definition,
  {42cb868a-a8e2-4be2-9a69-2eb8e8249c48},	!- Handle
  TH : คอมแพคฟลูออเรสเซนต์ LAMPTAN 7W/2U วอร์มไวท์,	!- Name
  LightingLevel,								!- Design Level Calculation Method
  7,									!- Lighting Level {W}
  , 									!- Watts per Space Floor Area {W/m2}
  ; 									!- Watts per Person {W/person}

OS:Lights:Definition,
  {f8a944d8-c61b-4bfc-b259-e4a62fe44124},	!- Handle
  TH : คอมแพคฟลูออเรสเซนต์ LAMPTAN SPIRAL 9W เดย์ไลท์,	!- Name
  LightingLevel,								!- Design Level Calculation Method
  9,									!- Lighting Level {W}
  , 									!- Watts per Space Floor Area {W/m2}
  ; 									!- Watts per Person {W/person}

OS:Lights:Definition,
  {eee37f02-d3a1-4b3c-8a87-cd3d1a03e417},	!- Handle
  TH : คอมแพคฟลูออเรสเซนต์ LAMPTAN SPIRAL 13W เดย์ไลท์,	!- Name
  LightingLevel,								!- Design Level Calculation Method
  13,									!- Lighting Level {W}
  , 									!- Watts per Space Floor Area {W/m2}
  ; 									!- Watts per Person {W/person}

OS:Lights:Definition,
  {4296cf1c-2372-46d7-aca5-be040a01b95f},	!- Handle
  TH : คอมแพคฟลูออเรสเซนต์ LAMPTAN SPIRAL 13W วอร์มไวท์,	!- Name
  LightingLevel,								!- Design Level Calculation Method
  13,									!- Lighting Level {W}
  , 									!- Watts per Space Floor Area {W/m2}
  ; 									!- Watts per Person {W/person}

OS:Lights:Definition,
  {e13e2b4f-7100-4256-9fd4-798910891e9d},	!- Handle
  TH : คอมแพคฟลูออเรสเซนต์ LAMPTAN SPIRAL 18W เดย์ไลท์,	!- Name
  LightingLevel,								!- Design Level Calculation Method
  18,									!- Lighting Level {W}
  , 									!- Watts per Space Floor Area {W/m2}
  ; 									!- Watts per Person {W/person}

OS:Lights:Definition,
  {aa6c6e34-c705-4f49-bec2-4b69c9fd1111},	!- Handle
  TH : คอมแพคฟลูออเรสเซนต์ LAMPTAN SPIRAL 18W วอร์มไวท์,	!- Name
  LightingLevel,								!- Design Level Calculation Method
  18,									!- Lighting Level {W}
  , 									!- Watts per Space Floor Area {W/m2}
  ; 									!- Watts per Person {W/person}

OS:Lights:Definition,
  {0282378b-1241-43ea-b4f7-d0ff234f471f},	!- Handle
  TH : คอมแพคฟลูออเรสเซนต์ LAMPTAN SPIRAL 7W วอร์มไวท์,	!- Name
  LightingLevel,								!- Design Level Calculation Method
  7,									!- Lighting Level {W}
  , 									!- Watts per Space Floor Area {W/m2}
  ; 									!- Watts per Person {W/person}

OS:Lights:Definition,
  {f8412369-696f-458d-84fb-c7123c7e44bd},	!- Handle
  TH : คอมแพคฟลูออเรสเซนต์ LEKISE CFL SPIRAL 13W/EX-WW วอร์มไวท์,	!- Name
  LightingLevel,								!- Design Level Calculation Method
  13,									!- Lighting Level {W}
  , 									!- Watts per Space Floor Area {W/m2}
  ; 									!- Watts per Person {W/person}

OS:Lights:Definition,
  {783e06f0-b9d0-4f9d-93b8-9f50d1919d07},	!- Handle
  TH : คอมแพคฟลูออเรสเซนต์ LEKISE CFL SPIRAL 7W/EX-D เดย์ไลท์,	!- Name
  LightingLevel,								!- Design Level Calculation Method
  7,									!- Lighting Level {W}
  , 									!- Watts per Space Floor Area {W/m2}
  ; 									!- Watts per Person {W/person}

OS:Lights:Definition,
  {b26a6449-424d-49dc-bcbf-985382fa2886},	!- Handle
  TH : คอมแพคฟลูออเรสเซนต์ LEKISE CFL SPIRAL 7W/EX-WW วอร์มไวท์,	!- Name
  LightingLevel,								!- Design Level Calculation Method
  7,									!- Lighting Level {W}
  , 									!- Watts per Space Floor Area {W/m2}
  ; 									!- Watts per Person {W/person}

OS:Lights:Definition,
  {0b2eb961-271e-478e-8f1a-951a7b55c945},	!- Handle
  TH : คอมแพคฟลูออเรสเซนต์ LEKISE CFL SPIRAL 9W/EX-WW วอร์มไวท์,	!- Name
  LightingLevel,								!- Design Level Calculation Method
  9,									!- Lighting Level {W}
  , 									!- Watts per Space Floor Area {W/m2}
  ; 									!- Watts per Person {W/person}

OS:Lights:Definition,
  {481938d9-9df4-4499-bf86-4dc2525482da},	!- Handle
  TH : คอมแพคฟลูออเรสเซนต์ LEKISE CFL SPIRAL T2 11W/EX-D เดย์ไลท์,	!- Name
  LightingLevel,								!- Design Level Calculation Method
  11,									!- Lighting Level {W}
  , 									!- Watts per Space Floor Area {W/m2}
  ; 									!- Watts per Person {W/person}

OS:Lights:Definition,
  {88807601-2c8f-4b6a-a7b9-40352e2745e8},	!- Handle
  TH : คอมแพคฟลูออเรสเซนต์ LEKISE CFL SPIRAL T2 9W/EX-D เดย์ไลท์,	!- Name
  LightingLevel,								!- Design Level Calculation Method
  9,									!- Lighting Level {W}
  , 									!- Watts per Space Floor Area {W/m2}
  ; 									!- Watts per Person {W/person}

OS:Lights:Definition,
  {2ed171f6-534b-4303-ae0b-799abdc1b010},	!- Handle
  TH : คอมแพคฟลูออเรสเซนต์ LKS DAI-ICHI CFL 13W EX-D เดย์ไลท์,	!- Name
  LightingLevel,								!- Design Level Calculation Method
  13,									!- Lighting Level {W}
  , 									!- Watts per Space Floor Area {W/m2}
  ; 									!- Watts per Person {W/person}

OS:Lights:Definition,
  {73ef9256-b808-405d-88da-c6ad2161f213},	!- Handle
  TH : คอมแพคฟลูออเรสเซนต์ LKS DAI-ICHI CFL 13W EX-W วอร์มไวท์,	!- Name
  LightingLevel,								!- Design Level Calculation Method
  13,									!- Lighting Level {W}
  , 									!- Watts per Space Floor Area {W/m2}
  ; 									!- Watts per Person {W/person}

OS:Lights:Definition,
  {e274a8ce-4ac8-4aef-9254-e63a548453ca},	!- Handle
  TH : คอมแพคฟลูออเรสเซนต์ LKS DAI-ICHI CFL 15W EX-W วอร์มไวท์,	!- Name
  LightingLevel,								!- Design Level Calculation Method
  15,									!- Lighting Level {W}
  , 									!- Watts per Space Floor Area {W/m2}
  ; 									!- Watts per Person {W/person}

OS:Lights:Definition,
  {f30a2604-e7fa-4c17-b0b7-823242bf226e},	!- Handle
  TH : คอมแพคฟลูออเรสเซนต์ LKS DAI-ICHI CFL 20W EX-D เดย์ไลท์,	!- Name
  LightingLevel,								!- Design Level Calculation Method
  20,									!- Lighting Level {W}
  , 									!- Watts per Space Floor Area {W/m2}
  ; 									!- Watts per Person {W/person}

OS:Lights:Definition,
  {40df4b61-ffe9-46a4-9fdc-4bdb6fb5b603},	!- Handle