OS:Version,
  {1a9f1a11-14cd-478b-81b4-547475a132b8},	!- Handle
  1.6.0;									!- Version Identifier

OS:OtherEquipment:Definition,
  {7abe0470-ccac-4e7c-bfa5-18ff297c0972},	!- Handle
  TH : AIRCOOL (Wall Type) รุ่น ACFT-09/ACCT-09 ขนาด 9436 บีทียู/ชั่วโมง,	!- Name
  EquipmentLevel,						!- Design Level Calculation Method
  745.330963665087,						!- Design Level {W}
  , 									!- Watts per Space Floor Area {W/m2}
  ; 									!- Watts per Person {W/person}

OS:OtherEquipment:Definition,
  {659fd342-705a-4f91-9891-b4c48144e9da},	!- Handle
  TH : AIRCOOL (Wall Type) รุ่น ACFT-12/ACCT-12 ขนาด 12058 บีทียู/ชั่วโมง,	!- Name
  EquipmentLevel,						!- Design Level Calculation Method
  1014.95538720539,						!- Design Level {W}
  , 									!- Watts per Space Floor Area {W/m2}
  ; 									!- Watts per Person {W/person}

OS:OtherEquipment:Definition,
  {2d071833-7e89-4118-91ae-1604c0429aed},	!- Handle
  TH : AIRCOOL (Wall Type) รุ่น ACFT-18/ACCT-18 ขนาด 18030 บีทียู/ชั่วโมง,	!- Name
  EquipmentLevel,						!- Design Level Calculation Method
  1551.6669535284,						!- Design Level {W}
  , 									!- Watts per Space Floor Area {W/m2}
  ; 									!- Watts per Person {W/person}

OS:OtherEquipment:Definition,
  {72686bef-8a5d-45f3-ac5b-827613d82f29},	!- Handle
  TH : AIRCOOL (Wall Type) รุ่น ACFT-24/ACCT-24 ขนาด 24745 บีทียู/ชั่วโมง,	!- Name
  EquipmentLevel,						!- Design Level Calculation Method
  2062.07083333333,						!- Design Level {W}
  , 									!- Watts per Space Floor Area {W/m2}
  ; 									!- Watts per Person {W/person}

OS:OtherEquipment:Definition,
  {5e656368-99b7-4195-ae93-a7eaaf1c262b},	!- Handle
  TH : AMENA (Wall Type) รุ่น K Line Series ขนาด 9384 บีทียู/ชั่วโมง,	!- Name
  EquipmentLevel,						!- Design Level Calculation Method
  745.355043685465,						!- Design Level {W}
  , 									!- Watts per Space Floor Area {W/m2}
  ; 									!- Watts per Person {W/person}

OS:OtherEquipment:Definition,
  {8aa9711b-6526-4610-a62e-cbd2a9cfe447},	!- Handle
  TH : AMENA (Wall Type) รุ่น K LINE SERIES ขนาด 9415 บีทียู/ชั่วโมง,	!- Name
  EquipmentLevel,						!- Design Level Calculation Method
  739.010989010989,						!- Design Level {W}
  , 									!- Watts per Space Floor Area {W/m2}
  ; 									!- Watts per Person {W/person}

OS:OtherEquipment:Definition,
  {77b7abed-fe35-475e-8ccf-7392d37c44a3},	!- Handle
  TH : AMENA (Wall Type) รุ่น K LINE SERIES ขนาด 9892 บีทียู/ชั่วโมง,	!- Name
  EquipmentLevel,						!- Design Level Calculation Method
  831.959629941127,						!- Design Level {W}
  , 									!- Watts per Space Floor Area {W/m2}
  ; 									!- Watts per Person {W/person}

OS:OtherEquipment:Definition,
  {eba741e1-20d2-4e77-a096-5bc18c096336},	!- Handle
  TH : AMENA (Wall Type) รุ่น K Line Series ขนาด 9892 บีทียู/ชั่วโมง,	!- Name
  EquipmentLevel,						!- Design Level Calculation Method
  831.965517241379,						!- Design Level {W}
  , 									!- Watts per Space Floor Area {W/m2}
  ; 									!- Watts per Person {W/person}

OS:OtherEquipment:Definition,
  {3fd72e13-7c9b-4ba3-bede-3da38a243a68},	!- Handle
  TH : AMENA (Wall Type) รุ่น K Line Series ขนาด 9892 บีทียู/ชั่วโมง,	!- Name
  EquipmentLevel,						!- Design Level Calculation Method
  831.965517241379,						!- Design Level {W}
  , 									!- Watts per Space Floor Area {W/m2}
  ; 									!- Watts per Person {W/person}

OS:OtherEquipment:Definition,
  {6b1cfe23-3ffb-4498-bd6b-0b166903756b},	!- Handle
  TH : AMENA (Wall Type) รุ่น K Line Series ขนาด 12114 บีทียู/ชั่วโมง,	!- Name
  EquipmentLevel,						!- Design Level Calculation Method
  992.919672131148,						!- Design Level {W}
  , 									!- Watts per Space Floor Area {W/m2}
  ; 									!- Watts per Person {W/person}

OS:OtherEquipment:Definition,
  {d91dcf1c-4463-4d87-b90f-cb86358b1acf},	!- Handle
  TH : AMENA (Wall Type) รุ่น K LINE SERIES ขนาด 12683 บีทียู/ชั่วโมง,	!- Name
  EquipmentLevel,						!- Design Level Calculation Method
  1030.30056864338,						!- Design Level {W}
  , 									!- Watts per Space Floor Area {W/m2}
  ; 									!- Watts per Person {W/person}

OS:OtherEquipment:Definition,
  {3be51d0c-7d4b-43db-afd5-ed0ed2dfed3b},	!- Handle
  TH : AMENA (Wall Type) รุ่น K LINE SERIES ขนาด 13229 บีทียู/ชั่วโมง,	!- Name
  EquipmentLevel,						!- Design Level Calculation Method
  1120.15241320914,						!- Design Level {W}
  , 									!- Watts per Space Floor Area {W/m2}
  ; 									!- Watts per Person {W/person}

OS:OtherEquipment:Definition,
  {adf4ad4c-dc03-4a1e-93ed-6fc63831245a},	!- Handle
  TH : AMENA (Wall Type) รุ่น K Line Series ขนาด 13229 บีทียู/ชั่วโมง,	!- Name
  EquipmentLevel,						!- Design Level Calculation Method
  1120.18204911092,						!- Design Level {W}
  , 									!- Watts per Space Floor Area {W/m2}
  ; 									!- Watts per Person {W/person}

OS:OtherEquipment:Definition,
  {3ed5b024-976a-4463-8057-8e36381cfe0b},	!- Handle
  TH : AMENA (Wall Type) รุ่น K Line Series ขนาด 13229 บีทียู/ชั่วโมง,	!- Name
  EquipmentLevel,						!- Design Level Calculation Method
  1120.18204911092,						!- Design Level {W}
  , 									!- Watts per Space Floor Area {W/m2}
  ; 									!- Watts per Person {W/person}

OS:OtherEquipment:Definition,
  {b11ca38f-0514-49b9-9abe-2ef4fc2030cf},	!- Handle
  TH : AMENA (CASSETTE) รุ่น K LINE SERIES ขนาด 13280 บีทียู/ชั่วโมง,	!- Name
  EquipmentLevel,						!- Design Level Calculation Method
  1114.09395973154,						!- Design Level {W}
  , 									!- Watts per Space Floor Area {W/m2}
  ; 									!- Watts per Person {W/person}

OS:OtherEquipment:Definition,
  {2bdcbdfa-ef7c-4897-a582-badecf7762b4},	!- Handle
  TH : AMENA (CASSETTE) รุ่น K Line Series ขนาด 13280 บีทียู/ชั่วโมง,	!- Name
  EquipmentLevel,						!- Design Level Calculation Method
  1114.13003355705,						!- Design Level {W}
  , 									!- Watts per Space Floor Area {W/m2}
  ; 									!- Watts per Person {W/person}

OS:OtherEquipment:Definition,
  {681ee41f-3404-433e-9878-62ce7ffdac00},	!- Handle
  TH : AMENA (Floor/ceiling Type) รุ่น K LINE SERIES ขนาด 13544 บีทียู/ชั่วโมง,	!- Name
  EquipmentLevel,						!- Design Level Calculation Method
  1113.81578947368,						!- Design Level {W}
  , 									!- Watts per Space Floor Area {W/m2}
  ; 									!- Watts per Person {W/person}

OS:OtherEquipment:Definition,
  {cb861917-6779-4995-b598-e5e2c283f0a2},	!- Handle
  TH : AMENA (Floor/ceiling Type) รุ่น K LINE SERIES ขนาด 13544 บีทียู/ชั่วโมง,	!- Name
  EquipmentLevel,						!- Design Level Calculation Method
  1113.81578947368,						!- Design Level {W}
  , 									!- Watts per Space Floor Area {W/m2}
  ; 									!- Watts per Person {W/person}

OS:OtherEquipment:Definition,
  {a6c4d877-c295-4005-b72c-31d45cd0a05f},	!- Handle
  TH : AMENA (Wall Type) รุ่น K LINE SERIES ขนาด 15155 บีทียู/ชั่วโมง,	!- Name
  EquipmentLevel,						!- Design Level Calculation Method
  1202.77777777778,						!- Design Level {W}
  , 									!- Watts per Space Floor Area {W/m2}
  ; 									!- Watts per Person {W/person}

OS:OtherEquipment:Definition,
  {c5c9cf99-d1df-4769-89fd-ecf3a06e4cf5},	!- Handle
  TH : AMENA (Wall Type) รุ่น K Line Series ขนาด 15156 บีทียู/ชั่วโมง,	!- Name
  EquipmentLevel,						!- Design Level Calculation Method
  1202.8380952381,						!- Design Level {W}
  , 									!- Watts per Space Floor Area {W/m2}
  ; 									!- Watts per Person {W/person}

OS:OtherEquipment:Definition,
  {1b576a42-a544-4cb3-986f-cc73a77249e5},	!- Handle
  TH : AMENA (Wall Type) รุ่น K Line Series ขนาด 15156 บีทียู/ชั่วโมง,	!- Name
  EquipmentLevel,						!- Design Level Calculation Method
  1202.8380952381,						!- Design Level {W}
  , 									!- Watts per Space Floor Area {W/m2}
  ; 									!- Watts per Person {W/person}

OS:OtherEquipment:Definition,
  {595ffe1e-7c29-49cf-8a31-b4fdac75fb61},	!- Handle
  TH : AMENA (Wall Type) รุ่น K LINE SERIES ขนาด 18516 บีทียู/ชั่วโมง,	!- Name
  EquipmentLevel,						!- Design Level Calculation Method
  1541.71523730225,						!- Design Level {W}
  , 									!- Watts per Space Floor Area {W/m2}
  ; 									!- Watts per Person {W/person}

OS:OtherEquipment:Definition,
  {d53bc1d9-191a-4afb-bc58-7fcd403a74f8},	!- Handle
  TH : AMENA (Floor/ceiling Type) รุ่น K LINE SERIES ขนาด 18569 บีทียู/ชั่วโมง,	!- Name
  EquipmentLevel,						!- Design Level Calculation Method
  1584.38566552901,						!- Design Level {W}
  , 									!- Watts per Space Floor Area {W/m2}
  ; 									!- Watts per Person {W/person}

OS:OtherEquipment:Definition,
  {02a4b977-6619-4e99-91a7-a1fd6b21e208},	!- Handle
  TH : AMENA (Floor/ceiling Type) รุ่น K Line Series ขนาด 18569 บีทียู/ชั่วโมง,	!- Name
  EquipmentLevel,						!- Design Level Calculation Method
  1584.39675767918,						!- Design Level {W}
  , 									!- Watts per Space Floor Area {W/m2}
  ; 									!- Watts per Person {W/person}

OS:OtherEquipment:Definition,
  {3d955f9f-a6ff-4b3d-85db-fb9a2cb8cc80},	!- Handle
  TH : AMENA (Floor/ceiling Type) รุ่น K Line Series ขนาด 18569 บีทียู/ชั่วโมง,	!- Name
  EquipmentLevel,						!- Design Level Calculation Method
  1584.39675767918,						!- Design Level {W}
  , 									!- Watts per Space Floor Area {W/m2}
  ; 									!- Watts per Person {W/person}

OS:OtherEquipment:Definition,
  {fa375447-ba37-4107-96f3-bbba0b079401},	!- Handle
  TH : AMENA (Wall Type) รุ่น K LINE SERIES ขนาด 18690 บีทียู/ชั่วโมง,	!- Name
  EquipmentLevel,						!- Design Level Calculation Method
  1579.88165680473,						!- Design Level {W}
  , 									!- Watts per Space Floor Area {W/m2}
  ; 									!- Watts per Person {W/person}

OS:OtherEquipment:Definition,
  {a9585fb3-5646-4b3a-a591-446e2ba15e7a},	!- Handle
  TH : AMENA (Wall Type) รุ่น K Line Series ขนาด 18691 บีทียู/ชั่วโมง,	!- Name
  EquipmentLevel,						!- Design Level Calculation Method
  1579.96111580727,						!- Design Level {W}
  , 									!- Watts per Space Floor Area {W/m2}
  ; 									!- Watts per Person {W/person}

OS:OtherEquipment:Definition,
  {cadd76f3-cfad-4343-95c3-498add3d03d4},	!- Handle
  TH : AMENA (Wall Type) รุ่น K Line Series ขนาด 18691 บีทียู/ชั่วโมง,	!- Name
  EquipmentLevel,						!- Design Level Calculation Method
  1579.96111580727,						!- Design Level {W}
  , 									!- Watts per Space Floor Area {W/m2}
  ; 									!- Watts per Person {W/person}

OS:OtherEquipment:Definition,
  {e395bd56-d0e3-4903-ada7-a0a28ccaaa5b},	!- Handle
  TH : AMENA (Wall Type) รุ่น K Line Series ขนาด 18788 บีทียู/ชั่วโมง,	!- Name
  EquipmentLevel,						!- Design Level Calculation Method
  1536.20932134096,						!- Design Level {W}
  , 									!- Watts per Space Floor Area {W/m2}
  ; 									!- Watts per Person {W/person}

OS:OtherEquipment:Definition,
  {3a334132-2728-456a-93c7-974f180141d8},	!- Handle
  TH : AMENA (CASSETTE) รุ่น K LINE SERIES ขนาด 19532 บีทียู/ชั่วโมง,	!- Name
  EquipmentLevel,						!- Design Level Calculation Method
  1586.67749796913,						!- Design Level {W}
  , 									!- Watts per Space Floor Area {W/m2}
  ; 									!- Watts per Person {W/person}

OS:OtherEquipment:Definition,
  {c1e1b047-6cee-489e-8c3c-e754164599b2},	!- Handle
  TH : AMENA (CASSETTE) รุ่น K Line Series ขนาด 19533 บีทียู/ชั่วโมง,	!- Name
  EquipmentLevel,						!- Design Level Calculation Method
  1586.72136474411,						!- Design Level {W}
  , 									!- Watts per Space Floor Area {W/m2}
  ; 									!- Watts per Person {W/person}

OS:OtherEquipment:Definition,
  {aaa1f20a-81fb-47f8-8359-4a0401dcf94a},	!- Handle
  TH : AMENA (Wall Type) รุ่น K LINE SERIES ขนาด 23500 บีทียู/ชั่วโมง,	!- Name
  EquipmentLevel,						!- Design Level Calculation Method
  1901.29449838188,						!- Design Level {W}
  , 									!- Watts per Space Floor Area {W/m2}
  ; 									!- Watts per Person {W/person}

OS:OtherEquipment:Definition,
  {a6cf2dfc-25ee-4b70-a9a0-b672a598555d},	!- Handle
  TH : AMENA (Wall Type) รุ่น K LINE SERIES ขนาด 23500 บีทียู/ชั่วโมง,	!- Name
  EquipmentLevel,						!- Design Level Calculation Method
  1901.29449838188,						!- Design Level {W}
  , 									!- Watts per Space Floor Area {W/m2}
  ; 									!- Watts per Person {W/person}

OS:OtherEquipment:Definition,
  {3230f9c4-1d24-4406-b0d0-27f4f2a71d08},	!- Handle
  TH : AMENA (Wall Type) รุ่น K LINE SERIES ขนาด 25139 บีทียู/ชั่วโมง,	!- Name
  EquipmentLevel,						!- Design Level Calculation Method
  2103.6820083682,						!- Design Level {W}
  , 									!- Watts per Space Floor Area {W/m2}
  ; 									!- Watts per Person {W/person}

OS:OtherEquipment:Definition,
  {de5afc8b-34d0-42f3-800c-cd383e6d59df},	!- Handle
  TH : AMENA (Wall Type) รุ่น K Line Series ขนาด 25139 บีทียู/ชั่วโมง,	!- Name
  EquipmentLevel,						!- Design Level Calculation Method
  2103.70460251046,						!- Design Level {W}
  , 									!- Watts per Space Floor Area {W/m2}
  ; 									!- Watts per Person {W/person}

OS:OtherEquipment:Definition,
  {448faf6c-ee62-4120-a08d-de844bfd147b},	!- Handle
  TH : AMENA (Wall Type) รุ่น K Line Series ขนาด 25139 บีทียู/ชั่วโมง,	!- Name
  EquipmentLevel,						!- Design Level Calculation Method
  2103.70460251046,						!- Design Level {W}
  , 									!- Watts per Space Floor Area {W/m2}
  ; 									!- Watts per Person {W/person}

OS:OtherEquipment:Definition,
  {587a8f04-7416-4271-ad5a-76765d24c967},	!- Handle
  TH : AMENA (Wall Type) รุ่น K Line Series ขนาด 25190 บีทียู/ชั่วโมง,	!- Name
  EquipmentLevel,						!- Design Level Calculation Method
  2095.68302828619,						!- Design Level {W}
  , 									!- Watts per Space Floor Area {W/m2}
  ; 									!- Watts per Person {W/person}

OS:OtherEquipment:Definition,
  {ec6c5ffb-f7f2-4e93-846b-4a7ad4cbd853},	!- Handle
  TH : AMENA (Wall Type) รุ่น K Line Series ขนาด 25190 บีทียู/ชั่วโมง,	!- Name
  EquipmentLevel,						!- Design Level Calculation Method
  2095.68302828619,						!- Design Level {W}
  , 									!- Watts per Space Floor Area {W/m2}
  ; 									!- Watts per Person {W/person}

OS:OtherEquipment:Definition,
  {ad489da2-64b1-4164-832e-65ada9bc4a1d},	!- Handle
  TH : AMENA (Wall Type) รุ่น K Line Series ขนาด 25190 บีทียู/ชั่วโมง,	!- Name
  EquipmentLevel,						!- Design Level Calculation Method
  2095.68302828619,						!- Design Level {W}
  , 									!- Watts per Space Floor Area {W/m2}
  ; 									!- Watts per Person {W/person}

OS:OtherEquipment:Definition,
  {3c2223fa-cc8a-4220-8935-d2348bb1cf0a},	!- Handle
  TH : AMENA (Floor/ceiling Type) รุ่น K LINE SERIES ขนาด 25264 บีทียู/ชั่วโมง,	!- Name
  EquipmentLevel,						!- Design Level Calculation Method
  2168.58369098712,						!- Design Level {W}
  , 									!- Watts per Space Floor Area {W/m2}
  ; 									!- Watts per Person {W/person}

OS:OtherEquipment:Definition,
  {baadcdeb-de23-4a34-829f-002ada224a3d},	!- Handle
  TH : AMENA (Floor/ceiling Type) รุ่น K Line Series ขนาด 25264 บีทียู/ชั่วโมง,	!- Name
  EquipmentLevel,						!- Design Level Calculation Method
  2168.59656652361,						!- Design Level {W}
  , 									!- Watts per Space Floor Area {W/m2}
  ; 									!- Watts per Person {W/person}

OS:OtherEquipment:Definition,
  {c4b7d9d8-8ca7-44e2-81b0-fbdd25699cc5},	!- Handle
  TH : AMENA (Floor/ceiling Type) รุ่น K Line Series ขนาด 25264 บีทียู/ชั่วโมง,	!- Name
  EquipmentLevel,						!- Design Level Calculation Method
  2168.59656652361,						!- Design Level {W}
  , 									!- Watts per Space Floor Area {W/m2}
  ; 									!- Watts per Person {W/person}

OS:OtherEquipment:Definition,
  {169ad332-7db5-47e6-b528-40dff1e7a979},	!- Handle
  TH : AMENA (Floor/ceiling Type) รุ่น K Line Series ขนาด 25264 บีทียู/ชั่วโมง,	!- Name
  EquipmentLevel,						!- Design Level Calculation Method
  2168.59656652361,						!- Design Level {W}
  , 									!- Watts per Space Floor Area {W/m2}
  ; 									!- Watts per Person {W/person}

OS:OtherEquipment:Definition,
  {65dd482a-b65a-4ab8-b72b-29130d2ae3f8},	!- Handle
  TH : AMENA (Floor/ceiling Type) รุ่น K Line Series ขนาด 25264 บีทียู/ชั่วโมง,	!- Name
  EquipmentLevel,						!- Design Level Calculation Method
  2168.59656652361,						!- Design Level {W}
  , 									!- Watts per Space Floor Area {W/m2}
  ; 									!- Watts per Person {W/person}

OS:OtherEquipment:Definition,
  {89e60135-e45a-4347-9f2d-765385ab5762},	!- Handle
  TH : AMENA (CASSETTE) รุ่น K LINE SERIES ขนาด 25908 บีทียู/ชั่วโมง,	!- Name
  EquipmentLevel,						!- Design Level Calculation Method
  2188.17567567568,						!- Design Level {W}
  , 									!- Watts per Space Floor Area {W/m2}
  ; 									!- Watts per Person {W/person}

OS:OtherEquipment:Definition,
  {ab969090-7b3f-45a5-8dbc-a66727e761c9},	!- Handle
  TH : AMENA (CASSETTE) รุ่น K LINE SERIES ขนาด 25908 บีทียู/ชั่วโมง,	!- Name
  EquipmentLevel,						!- Design Level Calculation Method
  2188.17567567568,						!- Design Level {W}
  , 									!- Watts per Space Floor Area {W/m2}
  ; 									!- Watts per Person {W/person}

OS:OtherEquipment:Definition,
  {081b7f4b-18f5-46f5-bafe-f00f3047be8c},	!- Handle
  TH : AMENA (CASSETTE) รุ่น K Line Series ขนาด 25908 บีทียู/ชั่วโมง,	!- Name
  EquipmentLevel,						!- Design Level Calculation Method
  2188.18412162162,						!- Design Level {W}
  , 									!- Watts per Space Floor Area {W/m2}
  ; 									!- Watts per Person {W/person}

OS:OtherEquipment:Definition,
  {1d20edfb-3eb6-4a4d-9b23-9649fc63ce5f},	!- Handle
  TH : AMENA (CASSETTE) รุ่น K Line Series ขนาด 25908 บีทียู/ชั่วโมง,	!- Name
  EquipmentLevel,						!- Design Level Calculation Method
  2188.18412162162,						!- Design Level {W}
  , 									!- Watts per Space Floor Area {W/m2}
  ; 									!- Watts per Person {W/person}

OS:OtherEquipment:Definition,
  {e05ece3d-ed3d-4fa6-8198-0b2fba04ec3e},	!- Handle
  TH : AMENA (Floor/ceiling Type) รุ่น K LINE SERIES ขนาด 30949 บีทียู/ชั่วโมง,	!- Name
  EquipmentLevel,						!- Design Level Calculation Method
  2738.84955752212,						!- Design Level {W}
  , 									!- Watts per Space Floor Area {W/m2}
  ; 									!- Watts per Person {W/person}

OS:OtherEquipment:Definition,
  {67b69929-5ac7-42d0-ad46-a72660f23a4c},	!- Handle
  TH : AMENA (Floor/ceiling Type) รุ่น K Line Series ขนาด 30950 บีทียู/ชั่วโมง,	!- Name
  EquipmentLevel,						!- Design Level Calculation Method
  2738.9,						!- Design Level {W}
  , 									!- Watts per Space Floor Area {W/m2}
  ; 									!- Watts per Person {W/person}

OS:OtherEquipment:Definition,
  {30f4bf22-3313-43a0-ba0f-1ebbf1bc5a3c},	!- Handle
  TH : AMENA (Floor/ceiling Type) รุ่น K Line Series ขนาด 30950 บีทียู/ชั่วโมง,	!- Name
  EquipmentLevel,						!- Design Level Calculation Method
  2738.9,						!- Design Level {W}
  , 									!- Watts per Space Floor Area {W/m2}
  ; 									!- Watts per Person {W/person}

OS:OtherEquipment:Definition,
  {335c25a4-5555-4dd6-93ad-d2ce5255489c},	!- Handle
  TH : AMENA (CASSETTE) รุ่น K LINE SERIES ขนาด 31198 บีทียู/ชั่วโมง,	!- Name
  EquipmentLevel,						!- Design Level Calculation Method
  2765.78014184397,						!- Design Level {W}
  , 									!- Watts per Space Floor Area {W/m2}
  ; 									!- Watts per Person {W/person}

OS:OtherEquipment:Definition,
  {5c75a766-c1a4-4fe7-8f07-ff1169a45ba6},	!- Handle
  TH : AMENA (CASSETTE) รุ่น K Line Series ขนาด 31198 บีทียู/ชั่วโมง,	!- Name
  EquipmentLevel,						!- Design Level Calculation Method
  2765.7890070922,						!- Design Level {W}
  , 									!- Watts per Space Floor Area {W/m2}
  ; 									!- Watts per Person {W/person}

OS:OtherEquipment:Definition,
  {eacb0685-3c1a-4651-aed8-edb7d2cb5835},	!- Handle
  TH : AMENA (Floor/ceiling Type) รุ่น K LINE SERIES ขนาด 32874 บีทียู/ชั่วโมง,	!- Name
  EquipmentLevel,						!- Design Level Calculation Method
  2861.09660574413,						!- Design Level {W}
  , 									!- Watts per Space Floor Area {W/m2}
  ; 									!- Watts per Person {W/person}

OS:OtherEquipment:Definition,
  {666109bf-ae27-4b19-ac81-ee87d817e641},	!- Handle
  TH : AMENA (Floor/ceiling Type) รุ่น K LINE SERIES ขนาด 32874 บีทียู/ชั่วโมง,	!- Name
  EquipmentLevel,						!- Design Level Calculation Method
  2861.09660574413,						!- Design Level {W}
  , 									!- Watts per Space Floor Area {W/m2}
  ; 									!- Watts per Person {W/person}

OS:OtherEquipment:Definition,
  {3ee7db86-fd51-4108-8c47-6fc43c8d247f},	!- Handle
  TH : AMENA (CASSETTE) รุ่น K LINE SERIES ขนาด 35923 บีทียู/ชั่วโมง,	!- Name
  EquipmentLevel,						!- Design Level Calculation Method
  3227.58310871518,						!- Design Level {W}
  , 									!- Watts per Space Floor Area {W/m2}
  ; 									!- Watts per Person {W/person}

OS:OtherEquipment:Definition,
  {5fffa050-ba82-4bbc-9dae-49eb90601c26},	!- Handle
  TH : AMENA (CASSETTE) รุ่น K Line Series ขนาด 35924 บีทียู/ชั่วโมง,	!- Name
  EquipmentLevel,						!- Design Level Calculation Method
  3227.65049415993,						!- Design Level {W}
  , 									!- Watts per Space Floor Area {W/m2}
  ; 									!- Watts per Person {W/person}

OS:OtherEquipment:Definition,
  {22b2a730-4edd-427b-aeef-c993ef910f3e},	!- Handle
  TH : AMENA (Floor/ceiling Type) รุ่น K Line Series ขนาด 36445 บีทียู/ชั่วโมง,	!- Name
  EquipmentLevel,						!- Design Level Calculation Method
  3228.07263064659,						!- Design Level {W}
  , 									!- Watts per Space Floor Area {W/m2}
  ; 									!- Watts per Person {W/person}

OS:OtherEquipment:Definition,
  {70e8c5e9-dd0c-447c-be99-85653a47e6ac},	!- Handle
  TH : AMENA (Floor/ceiling Type) รุ่น K Line Series ขนาด 36445 บีทียู/ชั่วโมง,	!- Name
  EquipmentLevel,						!- Design Level Calculation Method
  3228.07263064659,						!- Design Level {W}
  , 									!- Watts per Space Floor Area {W/m2}
  ; 									!- Watts per Person {W/person}

OS:OtherEquipment:Definition,
  {8731ea02-4728-4b61-a069-6ff26bd2b60e},	!- Handle
  TH : AMENA (CASSETTE) รุ่น K LINE SERIES ขนาด 36550 บีทียู/ชั่วโมง,	!- Name
  EquipmentLevel,						!- Design Level Calculation Method
  3251.7793594306,						!- Design Level {W}
  , 									!- Watts per Space Floor Area {W/m2}
  ; 									!- Watts per Person {W/person}

OS:OtherEquipment:Definition,
  {28351dac-9cc8-4b64-b952-b9986d7f8bf6},	!- Handle
  TH : AMENA (CASSETTE) รุ่น K Line Series ขนาด 36550 บีทียู/ชั่วโมง,	!- Name
  EquipmentLevel,						!- Design Level Calculation Method
  3251.80604982206,						!- Design Level {W}
  , 									!- Watts per Space Floor Area {W/m2}
  ; 									!- Watts per Person {W/person}

OS:OtherEquipment:Definition,
  {a05a0ff6-63d8-477f-97fb-765df357f035},	!- Handle
  TH : AMENA (Floor/ceiling Type) รุ่น K Line Series ขนาด 36577 บีทียู/ชั่วโมง,	!- Name
  EquipmentLevel,						!- Design Level Calculation Method
  3208.47719298246,						!- Design Level {W}
  , 									!- Watts per Space Floor Area {W/m2}
  ; 									!- Watts per Person {W/person}

OS:OtherEquipment:Definition,
  {503fdf14-2ce1-4344-aa96-b90db17c6014},	!- Handle
  TH : AMENA (Floor/ceiling Type) รุ่น K Line Series ขนาด 36577 บีทียู/ชั่วโมง,	!- Name
  EquipmentLevel,						!- Design Level Calculation Method
  3208.47719298246,						!- Design Level {W}
  , 									!- Watts per Space Floor Area {W/m2}
  ; 									!- Watts per Person {W/person}

OS:OtherEquipment:Definition,
  {963d1736-f8d8-42e8-96b2-0b8d0997cc08},	!- Handle
  TH : AMENA (Floor/ceiling Type) รุ่น K Line Series ขนาด 36693 บีทียู/ชั่วโมง,	!- Name
  EquipmentLevel,						!- Design Level Calculation Method
  3075.69069572506,						!- Design Level {W}
  , 									!- Watts per Space Floor Area {W/m2}
  ; 									!- Watts per Person {W/person}

OS:OtherEquipment:Definition,
  {42cb3995-8d9d-4b86-8e70-e91e04711c36},	!- Handle
  TH : AMENA (Floor/ceiling Type) รุ่น K Line Series ขนาด 36693 บีทียู/ชั่วโมง,	!- Name
  EquipmentLevel,						!- Design Level Calculation Method
  3075.69069572506,						!- Design Level {W}
  , 									!- Watts per Space Floor Area {W/m2}
  ; 									!- Watts per Person {W/person}

OS:OtherEquipment:Definition,
  {f99a975e-9a92-45f6-a2a1-42dc81aa9b23},	!- Handle
  TH : AMENA (Floor/ceiling Type) รุ่น K Line Series ขนาด 36743 บีทียู/ชั่วโมง,	!- Name
  EquipmentLevel,						!- Design Level Calculation Method
  3283.60053619303,						!- Design Level {W}
  , 									!- Watts per Space Floor Area {W/m2}
  ; 									!- Watts per Person {W/person}

OS:OtherEquipment:Definition,
  {8c166c46-16ae-44a3-8d68-bd6dcacd593b},	!- Handle
  TH : AMENA (Floor/ceiling Type) รุ่น K Line Series ขนาด 36743 บีทียู/ชั่วโมง,	!- Name
  EquipmentLevel,						!- Design Level Calculation Method
  3283.60053619303,						!- Design Level {W}
  , 									!- Watts per Space Floor Area {W/m2}
  ; 									!- Watts per Person {W/person}

OS:OtherEquipment:Definition,
  {50dcbfbe-e8c4-4796-a415-f7fa1d102f1e},	!- Handle
  TH : AMENA (CASSETTE) รุ่น K LINE SERIES ขนาด 38646 บีทียู/ชั่วโมง,	!- Name
  EquipmentLevel,						!- Design Level Calculation Method
  3337.30569948187,						!- Design Level {W}
  , 									!- Watts per Space Floor Area {W/m2}
  ; 									!- Watts per Person {W/person}

OS:OtherEquipment:Definition,
  {1dc2e289-aaf6-4bd3-9e4e-3903492f4184},	!- Handle
  TH : AMENA (CASSETTE) รุ่น K Line Series ขนาด 38646 บีทียู/ชั่วโมง,	!- Name
  EquipmentLevel,						!- Design Level Calculation Method
  3337.33678756477,						!- Design Level {W}
  , 									!- Watts per Space Floor Area {W/m2}
  ; 									!- Watts per Person {W/person}

OS:OtherEquipment:Definition,
  {2200ef72-6f18-447e-b02d-10f1a77d7ec8},	!- Handle
  TH : AMENA (CASSETTE) รุ่น K LINE SERIES ขนาด 38692 บีทียู/ชั่วโมง,	!- Name
  EquipmentLevel,						!- Design Level Calculation Method
  3427.10363153233,						!- Design Level {W}
  , 									!- Watts per Space Floor Area {W/m2}
  ; 									!- Watts per Person {W/person}

OS:OtherEquipment:Definition,
  {670cc839-6ceb-4b9e-9467-17f9335dbab5},	!- Handle
  TH : AMENA (CASSETTE) รุ่น K Line Series ขนาด 38692 บีทียู/ชั่วโมง,	!- Name
  EquipmentLevel,						!- Design Level Calculation Method
  3427.11337466785,						!- Design Level {W}
  , 									!- Watts per Space Floor Area {W/m2}
  ; 									!- Watts per Person {W/person}

OS:OtherEquipment:Definition,
  {83de1673-0fe6-407e-9f27-a08054be7d78},	!- Handle
  TH : AMENA (Floor/ceiling Type) รุ่น K Line Series ขนาด 40367 บีทียู/ชั่วโมง,	!- Name
  EquipmentLevel,						!- Design Level Calculation Method
  3559.70282186949,						!- Design Level {W}
  , 									!- Watts per Space Floor Area {W/m2}
  ; 									!- Watts per Person {W/person}

OS:OtherEquipment:Definition,
  {4e9771b0-e695-4fde-bf1a-a43998ee0088},	!- Handle
  TH : AMENA (Floor/ceiling Type) รุ่น K Line Series ขนาด 40367 บีทียู/ชั่วโมง,	!- Name
  EquipmentLevel,						!- Design Level Calculation Method
  3559.70282186949,						!- Design Level {W}
  , 									!- Watts per Space Floor Area {W/m2}
  ; 									!- Watts per Person {W/person}

OS:OtherEquipment:Definition,
  {4f1e7688-7250-47ad-833d-61d8ebf1ff5b},	!- Handle
  TH : AMENA (Floor/ceiling Type) รุ่น K Line Series ขนาด 40663 บีทียู/ชั่วโมง,	!- Name
  EquipmentLevel,						!- Design Level Calculation Method
  3451.88370118846,						!- Design Level {W}
  , 									!- Watts per Space Floor Area {W/m2}
  ; 									!- Watts per Person {W/person}

OS:OtherEquipment:Definition,
  {b75c07aa-25fb-4e41-8104-a65806c9fcd4},	!- Handle
  TH : AMENA (Floor/ceiling Type) รุ่น K Line Series ขนาด 40663 บีทียู/ชั่วโมง,	!- Name
  EquipmentLevel,						!- Design Level Calculation Method
  3451.88370118846,						!- Design Level {W}
  , 									!- Watts per Space Floor Area {W/m2}
  ; 									!- Watts per Person {W/person}

OS:OtherEquipment:Definition,
  {530f0693-f576-4a16-879e-acc61217c9c0},	!- Handle
  TH : AMENA (Wall Type) รุ่น Micro-Tech Series ขนาด 8983 บีทียู/ชั่วโมง,	!- Name
  EquipmentLevel,						!- Design Level Calculation Method
  769.790059982862,						!- Design Level {W}
  , 									!- Watts per Space Floor Area {W/m2}
  ; 									!- Watts per Person {W/person}

OS:OtherEquipment:Definition,
  {8353af4d-e95e-407f-9859-3497dac7f84b},	!- Handle
  TH : AMENA (Wall Type) รุ่น Micro-Tech Series ขนาด 9612 บีทียู/ชั่วโมง,	!- Name
  EquipmentLevel,						!- Design Level Calculation Method
  827.872523686477,						!- Design Level {W}
  , 									!- Watts per Space Floor Area {W/m2}
  ; 									!- Watts per Person {W/person}

OS:OtherEquipment:Definition,
  {ef872b78-0b18-41cd-a912-a6fe44dbf1f9},	!- Handle
  TH : AMENA (Wall Type) รุ่น Micro-Tech Series ขนาด 9612 บีทียู/ชั่วโมง,	!- Name
  EquipmentLevel,						!- Design Level Calculation Method
  827.872523686477,						!- Design Level {W}
  , 									!- Watts per Space Floor Area {W/m2}
  ; 									!- Watts per Person {W/person}

OS:OtherEquipment:Definition,
  {25a5a86e-4535-40ad-a17c-6bc6fbb37d3e},	!- Handle
  TH : AMENA (Wall Type) รุ่น MICRO-TECH SERIES ขนาด 12000 บีทียู/ชั่วโมง,	!- Name
  EquipmentLevel,						!- Design Level Calculation Method
  795.228628230616,						!- Design Level {W}
  , 									!- Watts per Space Floor Area {W/m2}
  ; 									!- Watts per Person {W/person}

OS:OtherEquipment:Definition,
  {6f6826ab-18a2-485e-a52f-fcf937d5f7e3},	!- Handle
  TH : AMENA (Floor/ceiling Type) รุ่น MICRO-TECH SERIES ขนาด 13462 บีทียู/ชั่วโมง,	!- Name
  EquipmentLevel,						!- Design Level Calculation Method
  1142.7843803056,						!- Design Level {W}
  , 									!- Watts per Space Floor Area {W/m2}
  ; 									!- Watts per Person {W/person}

OS:OtherEquipment:Definition,
  {5c6d4240-ff70-4ad4-a2b9-5e2d55eb7523},	!- Handle
  TH : AMENA (Wall Type) รุ่น Micro-Tech Series ขนาด 13742 บีทียู/ชั่วโมง,	!- Name
  EquipmentLevel,						!- Design Level Calculation Method
  1158.69898819562,						!- Design Level {W}
  , 									!- Watts per Space Floor Area {W/m2}
  ; 									!- Watts per Person {W/person}

OS:OtherEquipment:Definition,
  {9f0cca0f-b3c7-4e2e-a206-db291db416fd},	!- Handle
  TH : AMENA (Wall Type) รุ่น Micro-Tech Series ขนาด 13742 บีทียู/ชั่วโมง,	!- Name
  EquipmentLevel,						!- Design Level Calculation Method
  1158.69898819562,						!- Design Level {W}
  , 									!- Watts per Space Floor Area {W/m2}
  ; 									!- Watts per Person {W/person}

OS:OtherEquipment:Definition,
  {939e5d1c-d445-4244-84d4-ca58ab7e7264},	!- Handle
  TH : AMENA (CONCEALED) รุ่น Micro-Tech Series ขนาด 13761 บีทียู/ชั่วโมง,	!- Name