!- Thai library OpenStudio 1.7.0

!- Created By   : Narongsak Mala (narongsak.mala@gmail.com)
!- Supported By	: To-Be-One Technology Co, Ltd.
!- Craated Date : 22/05/2015
!- Modified By  : Narongsak Mala (narongsak.mala@gmail.com)
!- Modified Date : 25/05/2015
!-----------------------------------------------------------------


!- Revision			Details
!- 0.0.1-000 		Initialize.
!-					Added Split type air, Added Lighting system.
!-----------------------------------------------------------------

OS:Version,
  {3c716721-d111-41e2-ba18-6b2e0461cc6f}, !- Handle
  1.6.0;                                  !- Version Identifier

OS:Construction,
  {d40ed2fa-6e8d-4499-ab3a-2bcf1f383e36}, !- Handle
  ASHRAE 189.1-2009 AtticFloor ClimateZone 1-8, !- Name
  ,                                       !- Surface Rendering Name
  {ca8a182d-6baa-4755-a6c3-25cf72713114}, !- Layer 1
  {0eb8516d-0a6f-459b-adc0-7709a6a0d988}, !- Layer 2
  {ca8a182d-6baa-4755-a6c3-25cf72713114}; !- Layer 3

OS:StandardsInformation:Construction,
  {c8a635f2-1bae-4718-89d9-25bd80f1e6a1}, !- Handle
  {d40ed2fa-6e8d-4499-ab3a-2bcf1f383e36}, !- Construction Name
  AtticFloor,                             !- Intended Surface Type
  WoodFramed,                             !- Standards Construction Type
  ,                                       !- Perturbable Layer
  ,                                       !- Perturbable Layer Type
  ,                                       !- Other Perturbable Layer Type
  ASHRAE 189.1-2009;                      !- Construction Standard


 !----------------------- Custom By Pepsi ----------------
 !----------------------- Lighting -----------------------
OS:Lights:Definition,
 {5e984427-d844-45aa-a52a-149cc6e895ae},  !- Handle
  Th-Incandescent Lighting-100w, 		  !- Name
  LightingLevel,                          !- Design Level Calculation Method
  100,                                    !- Lighting Level {W}
  ,                                       !- Watts per Space Floor Area {W/m2}
  ;                                       !- Watts per Person {W/person}

OS:Lights:Definition,
 {20ac46d7-9024-47a2-84f5-938aa3663003},  !- Handle
  Th-Incandescent Lighting-60w, 		  !- Name
  LightingLevel,                          !- Design Level Calculation Method
  60,                                     !- Lighting Level {W}
  ,                                       !- Watts per Space Floor Area {W/m2}
  ;                                       !- Watts per Person {W/person}

OS:Lights:Definition,
 {51a44bbc-0c79-415d-acfc-d60e58fcf46b},  !- Handle
  Th-Incandescent Lighting-40w, 		  !- Name
  LightingLevel,                          !- Design Level Calculation Method
  40,                                     !- Lighting Level {W}
  ,                                       !- Watts per Space Floor Area {W/m2}
  ;                                       !- Watts per Person {W/person}

OS:Lights:Definition,
 {733752d4-9e98-4420-8ec1-78ec74abb479},  !- Handle
  Th-Incandescent Lighting-25w, 		  !- Name
  LightingLevel,                          !- Design Level Calculation Method
  25,                                     !- Lighting Level {W}
  ,                                       !- Watts per Space Floor Area {W/m2}
  ;                                       !- Watts per Person {W/person}
 
OS:Lights:Definition,
 {2f5d3b65-0a35-457f-9035-9f99a5458129},  !- Handle
  Th-Philips LED 5W Warm-white-5w, 		  !- Name
  LightingLevel,                          !- Design Level Calculation Method
  5,                                      !- Lighting Level {W}
  ,                                       !- Watts per Space Floor Area {W/m2}
  ;                                       !- Watts per Person {W/person}
 
OS:Lights:Definition,
 {013b1904-f1fd-48fe-a404-db6979a7269f},  !- Handle
  Th-Fluorescent Ring-8w, 		 		  !- Name
  LightingLevel,                          !- Design Level Calculation Method
  8,                                      !- Lighting Level {W}
  ,                                       !- Watts per Space Floor Area {W/m2}
  ;                                       !- Watts per Person {W/person}

OS:Lights:Definition,
 {c379af6e-5451-4bd0-9125-87c4e511bb97},  !- Handle
  Th-General Fluorescent Lamp-26w, 		  !- Name
  LightingLevel,                          !- Design Level Calculation Method
  26,                                     !- Lighting Level {W}
  ,                                       !- Watts per Space Floor Area {W/m2}
  ;  

OS:Lights:Definition,
 {de80aa2e-de6f-43ee-8942-42a65ce4049d},  !- Handle
  Th-General Fluorescent Lamp-18w, 		  !- Name
  LightingLevel,                          !- Design Level Calculation Method
  18,                                     !- Lighting Level {W}
  ,                                       !- Watts per Space Floor Area {W/m2}
  ;                                       !- Watts per Person {W/person}

OS:Lights:Definition,
 {63dd18a2-2439-4243-ac10-3e1caaad3e17},  !- Handle
  Th-General Fluorescent Lamp-13w, 		  !- Name
  LightingLevel,                          !- Design Level Calculation Method
  13,                                     !- Lighting Level {W}
  ,                                       !- Watts per Space Floor Area {W/m2}
  ;     
   
OS:Lights:Definition,
 {417838c4-6d4b-47e5-9fc4-eb797ab43abc},  !- Handle
  Th-Fluorescent Ring-11w, 		 		  !- Name
  LightingLevel,                          !- Design Level Calculation Method
  11,                                     !- Lighting Level {W}
  ,                                       !- Watts per Space Floor Area {W/m2}
  ;                                       !- Watts per Person {W/person}
       
OS:Lights:Definition,
 {b870293b-50b0-4645-92ae-d73a5fd5348b},  !- Handle
  Th-Fluorescent Ring-10w, 		 		  !- Name
  LightingLevel,                          !- Design Level Calculation Method
  10,                                     !- Lighting Level {W}
  ,                                       !- Watts per Space Floor Area {W/m2}
  ;                                       !- Watts per Person {W/person}
    
OS:Lights:Definition,
 {f431c065-896c-41c4-a47a-9f90423be82f},  !- Handle
  Th-General Fluorescent Lamp-9w, 		  !- Name
  LightingLevel,                          !- Design Level Calculation Method
  9,                                      !- Lighting Level {W}
  ,                                       !- Watts per Space Floor Area {W/m2}
  ;                                       !- Watts per Person {W/person}

OS:Lights:Definition,
 {75f9a43c-5c80-4f85-8dc8-47384dac569a},  !- Handle
  Th-General Fluorescent Lamp-7w, 		  !- Name
  LightingLevel,                          !- Design Level Calculation Method
  7,                                      !- Lighting Level {W}
  ,                                       !- Watts per Space Floor Area {W/m2}
  ;                                       !- Watts per Person {W/person}

OS:Lights:Definition,
 {70996d9c-abf3-4be3-bd42-1535d94ccb43},  !- Handle
  Th-General Fluorescent Lamp-4w, 		  !- Name
  LightingLevel,                          !- Design Level Calculation Method
  4,                                      !- Lighting Level {W}
  ,                                       !- Watts per Space Floor Area {W/m2}
  ;                                       !- Watts per Person {W/person}
   
  
 !----------------------- Air (Other Equipment)-----------
 !- Sharp air
OS:OtherEquipment:Definition,
  {9c48f938-cf68-471e-aee1-ba83a1f19c04}, !- Handle
  Th-SHARP-AH-L10-9000BTU,      		  !- Name
  EquipmentLevel,                         !- Design Level Calculation Method
  760,                                    !- Design Level {W}
  ,                                       !- Watts per Space Floor Area {W/m2}
  ;  
  
OS:OtherEquipment:Definition,
  {74bb5235-aa99-4e36-bfd4-b465690699b1}, !- Handle
  Th-SHARP-AH-L13-12000BTU,      		  !- Name
  EquipmentLevel,                         !- Design Level Calculation Method
  1030,                                   !- Design Level {W}
  ,                                       !- Watts per Space Floor Area {W/m2}
  ;  
 
 !- Toshiba air
OS:OtherEquipment:Definition,
  {82ee1c69-129a-4f92-8349-2bad089cf9ff}, !- Handle
  Th-TOSHIBA-RAS-25N3KPX-T-18000BTU,      !- Name
  EquipmentLevel,                         !- Design Level Calculation Method
  1419,                                   !- Design Level {W}
  ,                                       !- Watts per Space Floor Area {W/m2}
  ;                                       !- Watts per Person {W/Person}
 
OS:OtherEquipment:Definition,
  {a7f8eb4d-f4b7-43e0-a62c-eed3a7c5a632}, !- Handle
  Th-TOSHIBA-RAS-25N3KPX-T-24000BTU,      !- Name
  EquipmentLevel,                         !- Design Level Calculation Method
  1944,                                   !- Design Level {W}
  ,                                       !- Watts per Space Floor Area {W/m2}
  ; 

OS:OtherEquipment:Definition,
  {ff11a1e3-3f23-4995-a991-b6da05193a0a}, !- Handle
  Th-TOSHIBA-RAS-13N3KPX-T-12000BTU,      !- Name
  EquipmentLevel,                         !- Design Level Calculation Method
  1019,                                   !- Design Level {W}
  ,                                       !- Watts per Space Floor Area {W/m2}
  ; 

OS:OtherEquipment:Definition,
  {96d9e7e1-1fc3-4728-91fd-73571295b0cd}, !- Handle
  Th-TOSHIBA-RAS-10N3KPX-T-9000BTU,       !- Name
  EquipmentLevel,                         !- Design Level Calculation Method
  748,                                    !- Design Level {W}
  ,                                       !- Watts per Space Floor Area {W/m2}
  ; 
  
 !- Mitsubishi air 
 OS:OtherEquipment:Definition,
  {de5ae8e5-27b4-443b-b380-25bf9a9b93a0}, !- Handle
  Th-MITSUBISHI-MS-GJ18VA-18000BTU,       !- Name
  EquipmentLevel,                         !- Design Level Calculation Method
  1531.26 ,                               !- Design Level {W}
  ,                                       !- Watts per Space Floor Area {W/m2}
  ;                                       !- Watts per Person {W/Person}

OS:OtherEquipment:Definition,
  {12219563-6599-42a9-b98a-219993c32c54}, !- Handle
  Th-MITSUBISHI-MS-GJ24VA-24000BTU,       !- Name
  EquipmentLevel,                         !- Design Level Calculation Method
  1927.19,                                !- Design Level {W}
  ,                                       !- Watts per Space Floor Area {W/m2}
  ;                                       !- Watts per Person {W/Person}

OS:OtherEquipment:Definition,
  {f96a8ec2-4882-462d-b215-43dbca7d752c}, !- Handle
  Th-MITSUBISHI-MS-SE30VC-30000BTU,       !- Name
  EquipmentLevel,                         !- Design Level Calculation Method
  2540,                                   !- Design Level {W}
  ,                                       !- Watts per Space Floor Area {W/m2}
  ;                                       !- Watts per Person {W/Person}

OS:OtherEquipment:Definition,
  {65123fed-fac8-4d28-a8a7-1e8718b2d79f}, !- Handle
  Th-MITSUBISHI-MS-D36VC-36000BTU,        !- Name
  EquipmentLevel,                         !- Design Level Calculation Method
  3300,                                   !- Design Level {W}
  ,                                       !- Watts per Space Floor Area {W/m2}
  ;                                       !- Watts per Person {W/Person}

!- Haier
OS:OtherEquipment:Definition,
  {03784027-6f61-4fb3-8b60-8a68bdcd6fe5}, !- Handle
  Th-HAIER-HSU-10CEK03T(E)-10000BTU,      !- Name
  EquipmentLevel,                         !- Design Level Calculation Method
  1000,                                   !- Design Level {W}
  ,                                       !- Watts per Space Floor Area {W/m2}
  ;  

OS:OtherEquipment:Definition,
  {77117a3b-b45b-422a-beea-9850f9cb0009}, !- Handle
  Th-HAIER-HSU-CEK03T(E) Series HSU-24CEK03T(E)-24000BTU,      !- Name
  EquipmentLevel,                         !- Design Level Calculation Method
  2049.61,                                !- Design Level {W}
  ,                                       !- Watts per Space Floor Area {W/m2}
  ;  

!- Panasonic air
OS:OtherEquipment:Definition,
  {c116e041-202a-4ac3-a472-9765f453822e}, !- Handle
  Th-PANASONIC-Standard CS-PC18NKT-18000BTU,  !- Name
  EquipmentLevel,                         !- Design Level Calculation Method
  1500,                                   !- Design Level {W}
  ,                                       !- Watts per Space Floor Area {W/m2}
  ;  

OS:OtherEquipment:Definition,
  {546db843-84cc-47bf-93ea-6ba3c9f0d583}, !- Handle
  Th-PANASONIC-Standard CS-PC24NKT -24000BTU,  !- Name
  EquipmentLevel,                         !- Design Level Calculation Method
  2131,                                   !- Design Level {W}
  ,                                       !- Watts per Space Floor Area {W/m2}
  ;  

OS:OtherEquipment:Definition,
  {260cb125-6469-4f19-be81-1939aeb46355}, !- Handle
  Th-PANASONIC-Standard CS-PC12NKT -12000BTU,  !- Name
  EquipmentLevel,                         !- Design Level Calculation Method
  1037,                                   !- Design Level {W}
  ,                                       !- Watts per Space Floor Area {W/m2}
  ;  
  
!- Sumsung air
OS:OtherEquipment:Definition,
  {5df3f6b9-1092-4627-93e7-5fb6e808d324}, !- Handle
  Th-SUMSUNG-AR5000-9651BTU,              !- Name
  EquipmentLevel,                         !- Design Level Calculation Method
  759.6 ,                                 !- Design Level {W}
  ,                                       !- Watts per Space Floor Area {W/m2}
  ;                                       !- Watts per Person {W/Person}

OS:OtherEquipment:Definition,
  {611bb906-1d53-4f00-8a14-dd67708fbcac}, !- Handle
  Th-SUMSUNG-AR5000-12253BTU,             !- Name
  EquipmentLevel,                         !- Design Level Calculation Method
  1023.5,                                 !- Design Level {W}
  ,                                       !- Watts per Space Floor Area {W/m2}
  ;                                       !- Watts per Person {W/Person}
  
OS:OtherEquipment:Definition,
  {f1fc9e1e-dc64-447b-84a5-47d1e54214ca}, !- Handle
  Th-SUMSUNG-AR5000-18535BTU,             !- Name
  EquipmentLevel,                         !- Design Level Calculation Method
  1500.8,                                 !- Design Level {W}
  ,                                       !- Watts per Space Floor Area {W/m2}
  ;                                       !- Watts per Person {W/Person}
  
OS:OtherEquipment:Definition,
  {1f96e875-cf99-4537-a81a-abb8b7437b63}, !- Handle
  Th-SUMSUNG-AR5000-12190BTU,             !- Name
  EquipmentLevel,                         !- Design Level Calculation Method
  929.2 ,                                 !- Design Level {W}
  ,                                       !- Watts per Space Floor Area {W/m2}
  ;                                       !- Watts per Person {W/Person}
  
  !----------------------- Materials ----------------------
 
OS:Material,
  {84d77143-614b-4312-be09-4f69a3338ae6},	!- Handle
  กระดาษอัด,									!- Name
  Smooth,									!- Roughness
  0.012,									!- Thickness {m}
  0.086,									!- Conductivity {W/m-K}
  400,										!- Density {kg/m3}
  1380,										!- Specific Heat {J/kg-K}
  0.9,										!- Thermal Absorptance
  0.7,										!- Solar Absorptance
  0.7;										!- Visible Absorptance

OS:Material,
  {ba3371fb-343b-42cb-8d58-05bc562d366b},	!- Handle
  กระเบื้องคอนกรีต ซีแพคโมเนีย สีแดง,									!- Name
  Smooth,									!- Roughness
  0.012,									!- Thickness {m}
  0.993,									!- Conductivity {W/m-K}
  2400,										!- Density {kg/m3}
  790,										!- Specific Heat {J/kg-K}
  0.9,										!- Thermal Absorptance
  0.7,										!- Solar Absorptance
  0.7;										!- Visible Absorptance

OS:Material,
  {6ce8ad54-047f-47c3-a6ad-c5fea6909237},	!- Handle
  กระเบื้องซีเมนต์ใยหินแผ่นเรียบ,									!- Name
  Smooth,									!- Roughness
  0.012,									!- Thickness {m}
  0.397,									!- Conductivity {W/m-K}
  1700,										!- Density {kg/m3}
  1000,										!- Specific Heat {J/kg-K}
  0.9,										!- Thermal Absorptance
  0.7,										!- Solar Absorptance
  0.7;										!- Visible Absorptance

OS:Material,
  {642d8a4b-dfa4-4ec6-a670-4bc537ad2c4f},	!- Handle
  กระเบื้องซีเมนต์ใยหินแผ่นเรียบ หนา 6 มม.,									!- Name
  Smooth,									!- Roughness
  0.012,									!- Thickness {m}
  0.507,									!- Conductivity {W/m-K}
  1722,										!- Density {kg/m3}
  1000,										!- Specific Heat {J/kg-K}
  0.9,										!- Thermal Absorptance
  0.7,										!- Solar Absorptance
  0.7;										!- Visible Absorptance

OS:Material,
  {e6ba7974-5c27-4d14-8348-8a302e33ba0c},	!- Handle
  กระเบื้องซีเมนต์ใยหินแผ่นเรียบ หนา 8 มม.,									!- Name
  Smooth,									!- Roughness
  0.012,									!- Thickness {m}
  0.511,									!- Conductivity {W/m-K}
  1708,										!- Density {kg/m3}
  1000,										!- Specific Heat {J/kg-K}
  0.9,										!- Thermal Absorptance
  0.7,										!- Solar Absorptance
  0.7;										!- Visible Absorptance

OS:Material,
  {463df8a4-833b-4676-8a34-fb96d7f13bd4},	!- Handle
  กระเบื้องซีเมนต์ใยหินลอนคู่,									!- Name
  Smooth,									!- Roughness
  0.012,									!- Thickness {m}
  0.395,									!- Conductivity {W/m-K}
  2000,										!- Density {kg/m3}
  1000,										!- Specific Heat {J/kg-K}
  0.9,										!- Thermal Absorptance
  0.7,										!- Solar Absorptance
  0.7;										!- Visible Absorptance

OS:Material,
  {6985233c-9b20-46cf-b637-85e2905fdf0d},	!- Handle
  กระเบื้องซีเมนต์ใยหินลอนคู่สีเขียวเข้ม,									!- Name
  Smooth,									!- Roughness
  0.012,									!- Thickness {m}
  0.395,									!- Conductivity {W/m-K}
  2000,										!- Density {kg/m3}
  1000,										!- Specific Heat {J/kg-K}
  0.9,										!- Thermal Absorptance
  0.7,										!- Solar Absorptance
  0.7;										!- Visible Absorptance

OS:Material,
  {d45c28e2-9de8-48c1-ad82-3506bc884cc5},	!- Handle
  กระเบื้องซีเมนต์ใยหินลอนคู่สีหมากสุก,									!- Name
  Smooth,									!- Roughness
  0.012,									!- Thickness {m}
  0.382,									!- Conductivity {W/m-K}
  1800,										!- Density {kg/m3}
  1000,										!- Specific Heat {J/kg-K}
  0.9,										!- Thermal Absorptance
  0.7,										!- Solar Absorptance
  0.7;										!- Visible Absorptance

OS:Material,
  {0407b0a9-2eae-4972-9729-96486b5a43aa},	!- Handle
  กระเบื้องซีเมนต์ใยหินลอนเล็ก,									!- Name
  Smooth,									!- Roughness
  0.012,									!- Thickness {m}
  0.384,									!- Conductivity {W/m-K}
  1700,										!- Density {kg/m3}
  1000,										!- Specific Heat {J/kg-K}
  0.9,										!- Thermal Absorptance
  0.7,										!- Solar Absorptance
  0.7;										!- Visible Absorptance

OS:Material,
  {40eb9cf7-aad9-43c2-9b5e-d1e01de0ed4f},	!- Handle
  กระเบื้องซีเมนต์ใยหินลอนเล็กไม่มีสี,									!- Name
  Smooth,									!- Roughness
  0.012,									!- Thickness {m}
  0.384,									!- Conductivity {W/m-K}
  1700,										!- Density {kg/m3}
  1000,										!- Specific Heat {J/kg-K}
  0.9,										!- Thermal Absorptance
  0.7,										!- Solar Absorptance
  0.7;										!- Visible Absorptance

OS:Material,
  {fccd332d-5057-4488-b4de-f202ef2e116d},	!- Handle
  กระเบื้องซีเมนต์ใยหินลอนเล็กสีเขียว,									!- Name
  Smooth,									!- Roughness
  0.012,									!- Thickness {m}
  0.389,									!- Conductivity {W/m-K}
  2055,										!- Density {kg/m3}
  1000,										!- Specific Heat {J/kg-K}
  0.9,										!- Thermal Absorptance
  0.7,										!- Solar Absorptance
  0.7;										!- Visible Absorptance

OS:Material,
  {82e3cd2d-6019-47d3-8c0e-c7d577210d47},	!- Handle
  กระเบื้องซีเมนต์ใยหินลอนเล็กสีเหลือง,									!- Name
  Smooth,									!- Roughness
  0.012,									!- Thickness {m}
  0.239,									!- Conductivity {W/m-K}
  1800,										!- Density {kg/m3}
  1000,										!- Specific Heat {J/kg-K}
  0.9,										!- Thermal Absorptance
  0.7,										!- Solar Absorptance
  0.7;										!- Visible Absorptance

OS:Material,
  {07b5c01f-c762-4aeb-b4aa-4acc43b5b965},	!- Handle
  กระเบื้องซีเมนต์ใยหินลอนใหญ่,									!- Name
  Smooth,									!- Roughness
  0.012,									!- Thickness {m}
  0.441,									!- Conductivity {W/m-K}
  2000,										!- Density {kg/m3}
  1000,										!- Specific Heat {J/kg-K}
  0.9,										!- Thermal Absorptance
  0.7,										!- Solar Absorptance
  0.7;										!- Visible Absorptance

OS:Material,
  {02b1282f-2c9f-4cab-9a1c-8a2e94994023},	!- Handle
  กระเบื้องซีเมนต์ใยหินลอนใหญ่ไม่มีสี,									!- Name
  Smooth,									!- Roughness
  0.012,									!- Thickness {m}
  0.441,									!- Conductivity {W/m-K}
  2000,										!- Density {kg/m3}
  1000,										!- Specific Heat {J/kg-K}
  0.9,										!- Thermal Absorptance
  0.7,										!- Solar Absorptance
  0.7;										!- Visible Absorptance

OS:Material,
  {06078efe-3b31-4ae8-95ae-ebd61423e3de},	!- Handle
  กระเบื้องเซรามิค,									!- Name
  Smooth,									!- Roughness
  0.012,									!- Thickness {m}
  0.338,									!- Conductivity {W/m-K}
  2100,										!- Density {kg/m3}
  800,										!- Specific Heat {J/kg-K}
  0.9,										!- Thermal Absorptance
  0.7,										!- Solar Absorptance
  0.7;										!- Visible Absorptance

OS:Material,
  {0454b660-9580-42f9-80f6-cf561cacaaf7},	!- Handle
  กระเบื้องปูดาดฟ้ามวลเบา,									!- Name
  Smooth,									!- Roughness
  0.012,									!- Thickness {m}
  0.341,									!- Conductivity {W/m-K}
  930,										!- Density {kg/m3}
  880,										!- Specific Heat {J/kg-K}
  0.9,										!- Thermal Absorptance
  0.7,										!- Solar Absorptance
  0.7;										!- Visible Absorptance

OS:Material,
  {8e9b6203-a7e1-485e-8df2-8feaae0b2aeb},	!- Handle
  กระเบื้องปูพื้น คัมพานา,									!- Name
  Smooth,									!- Roughness
  0.012,									!- Thickness {m}
  0.368,									!- Conductivity {W/m-K}
  2065,										!- Density {kg/m3}
  800,										!- Specific Heat {J/kg-K}
  0.9,										!- Thermal Absorptance
  0.7,										!- Solar Absorptance
  0.7;										!- Visible Absorptance

OS:Material,
  {8c78765e-c5b6-4576-b3f6-78ed7a7161cf},	!- Handle
  กระเบื้องปูพื้น โซซูโก้,									!- Name
  Smooth,									!- Roughness
  0.012,									!- Thickness {m}
  0.362,									!- Conductivity {W/m-K}
  2093,										!- Density {kg/m3}
  800,										!- Specific Heat {J/kg-K}
  0.9,										!- Thermal Absorptance
  0.7,										!- Solar Absorptance
  0.7;										!- Visible Absorptance

OS:Material,
  {45d14596-d8e0-411f-8394-b5bbc48304bf},	!- Handle
  กระเบื้องยาง,									!- Name
  Smooth,									!- Roughness
  0.012,									!- Thickness {m}
  0.573,									!- Conductivity {W/m-K}
  1900,										!- Density {kg/m3}
  1260,										!- Specific Heat {J/kg-K}
  0.9,										!- Thermal Absorptance
  0.7,										!- Solar Absorptance
  0.7;										!- Visible Absorptance

OS:Material,
  {4db4c8e5-9fc8-4c94-9b3c-fc528e38bb26},	!- Handle
  กระเบื้องใยแก้วโปร่งแสงแผ่นเรียบสีขาวขุ่น,									!- Name
  Smooth,									!- Roughness
  0.012,									!- Thickness {m}
  0.137,									!- Conductivity {W/m-K}
  1325,										!- Density {kg/m3}
  1880,										!- Specific Heat {J/kg-K}
  0.9,										!- Thermal Absorptance
  0.7,										!- Solar Absorptance
  0.7;										!- Visible Absorptance

OS:Material,
  {b8b102e6-406c-49ae-bd07-4bc6cf28283e},	!- Handle
  กระเบื้องใยแก้วโปร่งแสงแผ่นเรียบสีขาวใส,									!- Name
  Smooth,									!- Roughness
  0.012,									!- Thickness {m}
  0.201,									!- Conductivity {W/m-K}
  1342,										!- Density {kg/m3}
  1880,										!- Specific Heat {J/kg-K}
  0.9,										!- Thermal Absorptance
  0.7,										!- Solar Absorptance
  0.7;										!- Visible Absorptance

OS:Material,
  {40a71ff3-5257-42a7-8bc1-41e651fe6879},	!- Handle
  กระเบื้องใยแก้วโปร่งแสงเรียบ,									!- Name
  Smooth,									!- Roughness
  0.012,									!- Thickness {m}
  0.213,									!- Conductivity {W/m-K}
  1340,										!- Density {kg/m3}
  1880,										!- Specific Heat {J/kg-K}
  0.9,										!- Thermal Absorptance
  0.7,										!- Solar Absorptance
  0.7;										!- Visible Absorptance

OS:Material,
  {38ce160d-93aa-4478-84f8-754bd77ecaff},	!- Handle
  กระเบื้องใยแก้วโปร่งแสงลอนใหญ่,									!- Name
  Smooth,									!- Roughness
  0.012,									!- Thickness {m}
  0.181,									!- Conductivity {W/m-K}
  1700,										!- Density {kg/m3}
  1880,										!- Specific Heat {J/kg-K}
  0.9,										!- Thermal Absorptance
  0.7,										!- Solar Absorptance
  0.7;										!- Visible Absorptance

OS:Material,
  {5776b779-fce8-4905-9f35-5a26dd1144ec},	!- Handle
  กระเบื้องใยแก้วลอนคู่สีขาวขุ่น,									!- Name
  Smooth,									!- Roughness
  0.012,									!- Thickness {m}
  0.202,									!- Conductivity {W/m-K}
  1500,										!- Density {kg/m3}
  1880,										!- Specific Heat {J/kg-K}
  0.9,										!- Thermal Absorptance
  0.7,										!- Solar Absorptance
  0.7;										!- Visible Absorptance

OS:Material,
  {2bea0794-f81c-4998-8ccc-e9df7fa78948},	!- Handle
  กระเบื้องลูกฟูกโปร่งแสง,									!- Name
  Smooth,									!- Roughness
  0.012,									!- Thickness {m}
  0.16,									!- Conductivity {W/m-K}
  1340,										!- Density {kg/m3}
  1880,										!- Specific Heat {J/kg-K}
  0.9,										!- Thermal Absorptance
  0.7,										!- Solar Absorptance
  0.7;										!- Visible Absorptance

OS:Material,
  {a3f2e99a-c834-40dd-8d13-81094f7f289e},	!- Handle
  กระเบื้องลูกฟูกโปร่งแสง ซีแพคโมเนีย,									!- Name
  Smooth,									!- Roughness
  0.012,									!- Thickness {m}
  0.16,									!- Conductivity {W/m-K}
  1344,										!- Density {kg/m3}
  1880,										!- Specific Heat {J/kg-K}
  0.9,										!- Thermal Absorptance
  0.7,										!- Solar Absorptance
  0.7;										!- Visible Absorptance

OS:Material,
  {afcc1cbf-4812-4142-aeb4-23da85bae147},	!- Handle
  กระเบื้องหลังคาคอนกรีต,									!- Name
  Smooth,									!- Roughness
  0.012,									!- Thickness {m}
  0.993,									!- Conductivity {W/m-K}
  2400,										!- Density {kg/m3}
  790,										!- Specific Heat {J/kg-K}
  0.9,										!- Thermal Absorptance
  0.7,										!- Solar Absorptance
  0.7;										!- Visible Absorptance

OS:Material,
  {3dbd5215-5e81-4397-8129-ad5836cb5c14},	!- Handle
  คอนกรีต,									!- Name
  Smooth,									!- Roughness
  0.012,									!- Thickness {m}
  1.442,									!- Conductivity {W/m-K}
  2400,										!- Density {kg/m3}
  920,										!- Specific Heat {J/kg-K}
  0.9,										!- Thermal Absorptance
  0.7,										!- Solar Absorptance
  0.7;										!- Visible Absorptance

OS:Material,
  {8f8c2060-dd59-4d28-a703-efc965818922},	!- Handle
  คอนกรีตบล็อกกลวง 80 มม. ไม่ฉาบ,									!- Name
  Smooth,									!- Roughness
  0.012,									!- Thickness {m}
  0.546,									!- Conductivity {W/m-K}
  2210,										!- Density {kg/m3}
  920,										!- Specific Heat {J/kg-K}
  0.9,										!- Thermal Absorptance
  0.7,										!- Solar Absorptance
  0.7;										!- Visible Absorptance

OS:Material,
  {f513bc3d-831b-400d-a8f0-233e02b2f93a},	!- Handle
  คอนกรีตมวลเบา,									!- Name
  Smooth,									!- Roughness
  0.012,									!- Thickness {m}
  0.476,									!- Conductivity {W/m-K}
  1280,										!- Density {kg/m3}
  840,										!- Specific Heat {J/kg-K}
  0.9,										!- Thermal Absorptance
  0.7,										!- Solar Absorptance
  0.7;										!- Visible Absorptance

OS:Material,
  {579ab81c-b6a2-4978-952d-a62d82cbe329},	!- Handle
  คอนกรีตมวลเบา ความหนาแน่น 1120 กก./ลบ.ม.,									!- Name
  Smooth,									!- Roughness
  0.012,									!- Thickness {m}
  0.346,									!- Conductivity {W/m-K}
  1120,										!- Density {kg/m3}
  840,										!- Specific Heat {J/kg-K}
  0.9,										!- Thermal Absorptance
  0.7,										!- Solar Absorptance
  0.7;										!- Visible Absorptance

OS:Material,
  {c2addb5f-636a-4427-8ac4-06443f30895b},	!- Handle
  คอนกรีตมวลเบา ความหนาแน่น 1280 กก./ลบ.ม.,									!- Name
  Smooth,									!- Roughness
  0.012,									!- Thickness {m}
  0.476,									!- Conductivity {W/m-K}
  1280,										!- Density {kg/m3}
  840,										!- Specific Heat {J/kg-K}
  0.9,										!- Thermal Absorptance
  0.7,										!- Solar Absorptance
  0.7;										!- Visible Absorptance

OS:Material,
  {2cf0beaa-6c79-4f2f-8eea-9861975dfab7},	!- Handle
  คอนกรีตมวลเบา ความหนาแน่น 620 กก./ลบ.ม.,									!- Name
  Smooth,									!- Roughness
  0.012,									!- Thickness {m}
  0.18,									!- Conductivity {W/m-K}
  620,										!- Density {kg/m3}
  840,										!- Specific Heat {J/kg-K}
  0.9,										!- Thermal Absorptance
  0.7,										!- Solar Absorptance
  0.7;										!- Visible Absorptance

OS:Material,
  {10094df8-54fc-494f-ae7f-adc622fbc443},	!- Handle
  คอนกรีตมวลเบา ความหนาแน่น 700 กก./ลบ.ม.,									!- Name
  Smooth,									!- Roughness
  0.012,									!- Thickness {m}
  0.21,									!- Conductivity {W/m-K}
  700,										!- Density {kg/m3}
  840,										!- Specific Heat {J/kg-K}
  0.9,										!- Thermal Absorptance
  0.7,										!- Solar Absorptance
  0.7;										!- Visible Absorptance

OS:Material,
  {b550eca9-4855-46e8-8606-b9ba36d62e21},	!- Handle
  คอนกรีตมวลเบา ความหนาแน่น 960 กก./ลบ.ม.,									!- Name
  Smooth,									!- Roughness
  0.012,									!- Thickness {m}
  0.303,									!- Conductivity {W/m-K}
  960,										!- Density {kg/m3}
  840,										!- Specific Heat {J/kg-K}
  0.9,										!- Thermal Absorptance
  0.7,										!- Solar Absorptance
  0.7;										!- Visible Absorptance

OS:Material,
  {cb571043-2a69-42d2-a618-c512083592c8},	!- Handle
  คอนกรีตสแลบ,									!- Name
  Smooth,									!- Roughness
  0.012,									!- Thickness {m}
  1.442,									!- Conductivity {W/m-K}
  2400,										!- Density {kg/m3}
  920,										!- Specific Heat {J/kg-K}
  0.9,										!- Thermal Absorptance
  0.7,										!- Solar Absorptance
  0.7;										!- Visible Absorptance

OS:Material,
  {d265851f-e5ed-44c7-b137-c52e96e61065},	!- Handle