OS:Version,
  {3c716721-d111-41e2-ba18-6b2e0461cc6f}, !- Handle
  1.6.0;                                  !- Version Identifier

OS:Material,
  {24449632-f8af-46f9-8ffd-686e593ae247},	!- Handle
  กระดาษอัด,									!- Name
  Smooth,									!- Roughness
  0.012,									!- Thickness {m}
  0.086,									!- Conductivity {W/m-K}
  400,										!- Density {kg/m3}
  1.38,										!- Specific Heat {J/kg-K}
  0.507,									!- Thermal Absorptance
  0.4,										!- Solar Absorptance
  0.4;										!- Visible Absorptance

OS:Material,
  {f980d7b9-5918-41d1-b933-c0c61d2c7c6f},	!- Handle
  กระเบื้องคอนกรีต ซีแพคโมเนีย สีแดง,									!- Name
  Smooth,									!- Roughness
  0.012,									!- Thickness {m}
  0.993,									!- Conductivity {W/m-K}
  2400,										!- Density {kg/m3}
  0.79,										!- Specific Heat {J/kg-K}
  0.507,									!- Thermal Absorptance
  0.4,										!- Solar Absorptance
  0.4;										!- Visible Absorptance

OS:Material,
  {15434bc9-c0b5-4252-a3df-2a714c8333a2},	!- Handle
  กระเบื้องซีเมนต์ใยหินแผ่นเรียบ,									!- Name
  Smooth,									!- Roughness
  0.012,									!- Thickness {m}
  0.397,									!- Conductivity {W/m-K}
  1700,										!- Density {kg/m3}
  1,										!- Specific Heat {J/kg-K}
  0.507,									!- Thermal Absorptance
  0.4,										!- Solar Absorptance
  0.4;										!- Visible Absorptance

OS:Material,
  {52f77e2e-e20b-41c7-8584-fdbe1056e2a3},	!- Handle
  กระเบื้องซีเมนต์ใยหินแผ่นเรียบ หนา 6 มม.,									!- Name
  Smooth,									!- Roughness
  0.012,									!- Thickness {m}
  0.507,									!- Conductivity {W/m-K}
  1722,										!- Density {kg/m3}
  1,										!- Specific Heat {J/kg-K}
  0.507,									!- Thermal Absorptance
  0.4,										!- Solar Absorptance
  0.4;										!- Visible Absorptance

OS:Material,
  {8254a6a1-99a4-4734-8d0e-2d5d3b141a47},	!- Handle
  กระเบื้องซีเมนต์ใยหินแผ่นเรียบ หนา 8 มม.,									!- Name
  Smooth,									!- Roughness
  0.012,									!- Thickness {m}
  0.511,									!- Conductivity {W/m-K}
  1708,										!- Density {kg/m3}
  1,										!- Specific Heat {J/kg-K}
  0.507,									!- Thermal Absorptance
  0.4,										!- Solar Absorptance
  0.4;										!- Visible Absorptance

OS:Material,
  {f905a9f4-ed9f-476b-917f-74709f75c39e},	!- Handle
  กระเบื้องซีเมนต์ใยหินลอนคู่,									!- Name
  Smooth,									!- Roughness
  0.012,									!- Thickness {m}
  0.395,									!- Conductivity {W/m-K}
  2000,										!- Density {kg/m3}
  1,										!- Specific Heat {J/kg-K}
  0.507,									!- Thermal Absorptance
  0.4,										!- Solar Absorptance
  0.4;										!- Visible Absorptance

OS:Material,
  {eb510055-cac2-495e-82ff-8a89252efb56},	!- Handle
  กระเบื้องซีเมนต์ใยหินลอนคู่สีเขียวเข้ม,									!- Name
  Smooth,									!- Roughness
  0.012,									!- Thickness {m}
  0.395,									!- Conductivity {W/m-K}
  2000,										!- Density {kg/m3}
  1,										!- Specific Heat {J/kg-K}
  0.507,									!- Thermal Absorptance
  0.4,										!- Solar Absorptance
  0.4;										!- Visible Absorptance

OS:Material,
  {175466ce-b299-47aa-8c4d-4b3790f2da33},	!- Handle
  กระเบื้องซีเมนต์ใยหินลอนคู่สีหมากสุก,									!- Name
  Smooth,									!- Roughness
  0.012,									!- Thickness {m}
  0.382,									!- Conductivity {W/m-K}
  1800,										!- Density {kg/m3}
  1,										!- Specific Heat {J/kg-K}
  0.507,									!- Thermal Absorptance
  0.4,										!- Solar Absorptance
  0.4;										!- Visible Absorptance

OS:Material,
  {c7b135c8-0171-488d-8d20-dce19aa571c0},	!- Handle
  กระเบื้องซีเมนต์ใยหินลอนเล็ก,									!- Name
  Smooth,									!- Roughness
  0.012,									!- Thickness {m}
  0.384,									!- Conductivity {W/m-K}
  1700,										!- Density {kg/m3}
  1,										!- Specific Heat {J/kg-K}
  0.507,									!- Thermal Absorptance
  0.4,										!- Solar Absorptance
  0.4;										!- Visible Absorptance

OS:Material,
  {1ec67a51-9209-463e-b52c-b6f34666bd97},	!- Handle
  กระเบื้องซีเมนต์ใยหินลอนเล็กไม่มีสี,									!- Name
  Smooth,									!- Roughness
  0.012,									!- Thickness {m}
  0.384,									!- Conductivity {W/m-K}
  1700,										!- Density {kg/m3}
  1,										!- Specific Heat {J/kg-K}
  0.507,									!- Thermal Absorptance
  0.4,										!- Solar Absorptance
  0.4;										!- Visible Absorptance

OS:Material,
  {e939517e-fa61-4e7e-991a-89a505d0e708},	!- Handle
  กระเบื้องซีเมนต์ใยหินลอนเล็กสีเขียว,									!- Name
  Smooth,									!- Roughness
  0.012,									!- Thickness {m}
  0.389,									!- Conductivity {W/m-K}
  2055,										!- Density {kg/m3}
  1,										!- Specific Heat {J/kg-K}
  0.507,									!- Thermal Absorptance
  0.4,										!- Solar Absorptance
  0.4;										!- Visible Absorptance

OS:Material,
  {9c4987d8-29b0-45a4-9850-0d68ac2f51a5},	!- Handle
  กระเบื้องซีเมนต์ใยหินลอนเล็กสีเหลือง,									!- Name
  Smooth,									!- Roughness
  0.012,									!- Thickness {m}
  0.239,									!- Conductivity {W/m-K}
  1800,										!- Density {kg/m3}
  1,										!- Specific Heat {J/kg-K}
  0.507,									!- Thermal Absorptance
  0.4,										!- Solar Absorptance
  0.4;										!- Visible Absorptance

OS:Material,
  {e3911b2f-20d4-462c-bcd1-2a4641b2d950},	!- Handle
  กระเบื้องซีเมนต์ใยหินลอนใหญ่,									!- Name
  Smooth,									!- Roughness
  0.012,									!- Thickness {m}
  0.441,									!- Conductivity {W/m-K}
  2000,										!- Density {kg/m3}
  1,										!- Specific Heat {J/kg-K}
  0.507,									!- Thermal Absorptance
  0.4,										!- Solar Absorptance
  0.4;										!- Visible Absorptance

OS:Material,
  {dab7d8b6-93a7-4eaa-858e-4d7a179e767d},	!- Handle
  กระเบื้องซีเมนต์ใยหินลอนใหญ่ไม่มีสี,									!- Name
  Smooth,									!- Roughness
  0.012,									!- Thickness {m}
  0.441,									!- Conductivity {W/m-K}
  2000,										!- Density {kg/m3}
  1,										!- Specific Heat {J/kg-K}
  0.507,									!- Thermal Absorptance
  0.4,										!- Solar Absorptance
  0.4;										!- Visible Absorptance

OS:Material,
  {2f01ff71-51f6-4f1c-bcf9-5702ff495d8e},	!- Handle
  กระเบื้องเซรามิค,									!- Name
  Smooth,									!- Roughness
  0.012,									!- Thickness {m}
  0.338,									!- Conductivity {W/m-K}
  2100,										!- Density {kg/m3}
  0.8,										!- Specific Heat {J/kg-K}
  0.507,									!- Thermal Absorptance
  0.4,										!- Solar Absorptance
  0.4;										!- Visible Absorptance

OS:Material,
  {485857dc-548a-4f22-af2d-3e58d3b5c397},	!- Handle
  กระเบื้องปูดาดฟ้ามวลเบา,									!- Name
  Smooth,									!- Roughness
  0.012,									!- Thickness {m}
  0.341,									!- Conductivity {W/m-K}
  930,										!- Density {kg/m3}
  0.88,										!- Specific Heat {J/kg-K}
  0.507,									!- Thermal Absorptance
  0.4,										!- Solar Absorptance
  0.4;										!- Visible Absorptance

OS:Material,
  {7c337724-3a69-45fb-b0c7-03481d615f74},	!- Handle
  กระเบื้องปูพื้น คัมพานา,									!- Name
  Smooth,									!- Roughness
  0.012,									!- Thickness {m}
  0.368,									!- Conductivity {W/m-K}
  2065,										!- Density {kg/m3}
  0.8,										!- Specific Heat {J/kg-K}
  0.507,									!- Thermal Absorptance
  0.4,										!- Solar Absorptance
  0.4;										!- Visible Absorptance

OS:Material,
  {1ebf7eb3-f49a-4474-80e8-0f7556a9708a},	!- Handle
  กระเบื้องปูพื้น โซซูโก้,									!- Name
  Smooth,									!- Roughness
  0.012,									!- Thickness {m}
  0.362,									!- Conductivity {W/m-K}
  2093,										!- Density {kg/m3}
  0.8,										!- Specific Heat {J/kg-K}
  0.507,									!- Thermal Absorptance
  0.4,										!- Solar Absorptance
  0.4;										!- Visible Absorptance

OS:Material,
  {384c6eb5-e975-43ba-9c4c-b50391a960ab},	!- Handle
  กระเบื้องยาง,									!- Name
  Smooth,									!- Roughness
  0.012,									!- Thickness {m}
  0.573,									!- Conductivity {W/m-K}
  1900,										!- Density {kg/m3}
  1.26,										!- Specific Heat {J/kg-K}
  0.507,									!- Thermal Absorptance
  0.4,										!- Solar Absorptance
  0.4;										!- Visible Absorptance

OS:Material,
  {9728a8ea-aecd-47ab-80c2-cbc0e0cbb704},	!- Handle
  กระเบื้องใยแก้วโปร่งแสงแผ่นเรียบสีขาวขุ่น,									!- Name
  Smooth,									!- Roughness
  0.012,									!- Thickness {m}
  0.137,									!- Conductivity {W/m-K}
  1325,										!- Density {kg/m3}
  1.88,										!- Specific Heat {J/kg-K}
  0.507,									!- Thermal Absorptance
  0.4,										!- Solar Absorptance
  0.4;										!- Visible Absorptance

OS:Material,
  {af287e49-8f7f-47a3-a9a8-bf95e60c21eb},	!- Handle
  กระเบื้องใยแก้วโปร่งแสงแผ่นเรียบสีขาวใส,									!- Name
  Smooth,									!- Roughness
  0.012,									!- Thickness {m}
  0.201,									!- Conductivity {W/m-K}
  1342,										!- Density {kg/m3}
  1.88,										!- Specific Heat {J/kg-K}
  0.507,									!- Thermal Absorptance
  0.4,										!- Solar Absorptance
  0.4;										!- Visible Absorptance

OS:Material,
  {e0a16905-6b77-46d6-aa51-27a5103b3e9c},	!- Handle
  กระเบื้องใยแก้วโปร่งแสงเรียบ,									!- Name
  Smooth,									!- Roughness
  0.012,									!- Thickness {m}
  0.213,									!- Conductivity {W/m-K}
  1340,										!- Density {kg/m3}
  1.88,										!- Specific Heat {J/kg-K}
  0.507,									!- Thermal Absorptance
  0.4,										!- Solar Absorptance
  0.4;										!- Visible Absorptance

OS:Material,
  {daac4b7a-1f3a-435c-8529-d4eec04b1e5c},	!- Handle
  กระเบื้องใยแก้วโปร่งแสงลอนใหญ่,									!- Name
  Smooth,									!- Roughness
  0.012,									!- Thickness {m}
  0.181,									!- Conductivity {W/m-K}
  1700,										!- Density {kg/m3}
  1.88,										!- Specific Heat {J/kg-K}
  0.507,									!- Thermal Absorptance
  0.4,										!- Solar Absorptance
  0.4;										!- Visible Absorptance

OS:Material,
  {f63bec88-720c-4b96-a848-306354020713},	!- Handle
  กระเบื้องใยแก้วลอนคู่สีขาวขุ่น,									!- Name
  Smooth,									!- Roughness
  0.012,									!- Thickness {m}
  0.202,									!- Conductivity {W/m-K}
  1500,										!- Density {kg/m3}
  1.88,										!- Specific Heat {J/kg-K}
  0.507,									!- Thermal Absorptance
  0.4,										!- Solar Absorptance
  0.4;										!- Visible Absorptance

OS:Material,
  {cfb4bb56-2841-4c43-b121-6070791ef8af},	!- Handle
  กระเบื้องลูกฟูกโปร่งแสง,									!- Name
  Smooth,									!- Roughness
  0.012,									!- Thickness {m}
  0.16,									!- Conductivity {W/m-K}
  1340,										!- Density {kg/m3}
  1.88,										!- Specific Heat {J/kg-K}
  0.507,									!- Thermal Absorptance
  0.4,										!- Solar Absorptance
  0.4;										!- Visible Absorptance

OS:Material,
  {ee88e755-9ffd-4799-8335-fa1f6185932d},	!- Handle
  กระเบื้องลูกฟูกโปร่งแสง ซีแพคโมเนีย,									!- Name
  Smooth,									!- Roughness
  0.012,									!- Thickness {m}
  0.16,									!- Conductivity {W/m-K}
  1344,										!- Density {kg/m3}
  1.88,										!- Specific Heat {J/kg-K}
  0.507,									!- Thermal Absorptance
  0.4,										!- Solar Absorptance
  0.4;										!- Visible Absorptance

OS:Material,
  {3e8ecef8-d687-454d-bd78-a45e6394f0e2},	!- Handle
  กระเบื้องหลังคาคอนกรีต,									!- Name
  Smooth,									!- Roughness
  0.012,									!- Thickness {m}
  0.993,									!- Conductivity {W/m-K}
  2400,										!- Density {kg/m3}
  0.79,										!- Specific Heat {J/kg-K}
  0.507,									!- Thermal Absorptance
  0.4,										!- Solar Absorptance
  0.4;										!- Visible Absorptance

OS:Material,
  {c78d25f4-b088-47df-9e67-d811590dcc34},	!- Handle
  คอนกรีต,									!- Name
  Smooth,									!- Roughness
  0.012,									!- Thickness {m}
  1.442,									!- Conductivity {W/m-K}
  2400,										!- Density {kg/m3}
  0.92,										!- Specific Heat {J/kg-K}
  0.507,									!- Thermal Absorptance
  0.4,										!- Solar Absorptance
  0.4;										!- Visible Absorptance

OS:Material,
  {2383e99f-bce0-4abb-86de-c2f3cce378ea},	!- Handle
  คอนกรีตบล็อกกลวง 80 มม. ไม่ฉาบ,									!- Name
  Smooth,									!- Roughness
  0.012,									!- Thickness {m}
  0.546,									!- Conductivity {W/m-K}
  2210,										!- Density {kg/m3}
  0.92,										!- Specific Heat {J/kg-K}
  0.507,									!- Thermal Absorptance
  0.4,										!- Solar Absorptance
  0.4;										!- Visible Absorptance

OS:Material,
  {c0a10856-6891-49b8-9ba8-46bf560f95ab},	!- Handle
  คอนกรีตมวลเบา,									!- Name
  Smooth,									!- Roughness
  0.012,									!- Thickness {m}
  0.476,									!- Conductivity {W/m-K}
  1280,										!- Density {kg/m3}
  0.84,										!- Specific Heat {J/kg-K}
  0.507,									!- Thermal Absorptance
  0.4,										!- Solar Absorptance
  0.4;										!- Visible Absorptance

OS:Material,
  {7f95f440-832c-417e-af3d-48ff8ae8c22a},	!- Handle
  คอนกรีตมวลเบา ความหนาแน่น 1120 กก./ลบ.ม.,									!- Name
  Smooth,									!- Roughness
  0.012,									!- Thickness {m}
  0.346,									!- Conductivity {W/m-K}
  1120,										!- Density {kg/m3}
  0.84,										!- Specific Heat {J/kg-K}
  0.507,									!- Thermal Absorptance
  0.4,										!- Solar Absorptance
  0.4;										!- Visible Absorptance

OS:Material,
  {756c04f7-0be4-46c9-bd24-d1c79d8e1109},	!- Handle
  คอนกรีตมวลเบา ความหนาแน่น 1280 กก./ลบ.ม.,									!- Name
  Smooth,									!- Roughness
  0.012,									!- Thickness {m}
  0.476,									!- Conductivity {W/m-K}
  1280,										!- Density {kg/m3}
  0.84,										!- Specific Heat {J/kg-K}
  0.507,									!- Thermal Absorptance
  0.4,										!- Solar Absorptance
  0.4;										!- Visible Absorptance

OS:Material,
  {0c401560-348c-4582-a1fb-1aaeb37ba53d},	!- Handle
  คอนกรีตมวลเบา ความหนาแน่น 620 กก./ลบ.ม.,									!- Name
  Smooth,									!- Roughness
  0.012,									!- Thickness {m}
  0.18,									!- Conductivity {W/m-K}
  620,										!- Density {kg/m3}
  0.84,										!- Specific Heat {J/kg-K}
  0.507,									!- Thermal Absorptance
  0.4,										!- Solar Absorptance
  0.4;										!- Visible Absorptance

OS:Material,
  {fac2fa26-aaaf-4f57-be9e-b8c06f9ebcaf},	!- Handle
  คอนกรีตมวลเบา ความหนาแน่น 700 กก./ลบ.ม.,									!- Name
  Smooth,									!- Roughness
  0.012,									!- Thickness {m}
  0.21,									!- Conductivity {W/m-K}
  700,										!- Density {kg/m3}
  0.84,										!- Specific Heat {J/kg-K}
  0.507,									!- Thermal Absorptance
  0.4,										!- Solar Absorptance
  0.4;										!- Visible Absorptance

OS:Material,
  {d995e478-e61e-40e5-8fe4-e310f5162594},	!- Handle
  คอนกรีตมวลเบา ความหนาแน่น 960 กก./ลบ.ม.,									!- Name
  Smooth,									!- Roughness
  0.012,									!- Thickness {m}
  0.303,									!- Conductivity {W/m-K}
  960,										!- Density {kg/m3}
  0.84,										!- Specific Heat {J/kg-K}
  0.507,									!- Thermal Absorptance
  0.4,										!- Solar Absorptance
  0.4;										!- Visible Absorptance

OS:Material,
  {9c521994-f16a-4c52-b19d-26c59fbb0934},	!- Handle
  คอนกรีตสแลบ,									!- Name
  Smooth,									!- Roughness
  0.012,									!- Thickness {m}
  1.442,									!- Conductivity {W/m-K}
  2400,										!- Density {kg/m3}
  0.92,										!- Specific Heat {J/kg-K}
  0.507,									!- Thermal Absorptance
  0.4,										!- Solar Absorptance
  0.4;										!- Visible Absorptance

OS:Material,
  {91dab1a4-c86e-41d4-ae63-4ea0ef93a08b},	!- Handle
  ฉนวนกันความร้อนใต้หลังคา ตราช้าง FSO-G CRB-G 1625 -25mm,									!- Name
  Smooth,									!- Roughness
  0.012,									!- Thickness {m}
  0.038,									!- Conductivity {W/m-K}
  16,										!- Density {kg/m3}
  0.96,										!- Specific Heat {J/kg-K}
  0.507,									!- Thermal Absorptance
  0.4,										!- Solar Absorptance
  0.4;										!- Visible Absorptance

OS:Material,
  {ae584b81-6a58-4a0e-8daf-9371984503ff},	!- Handle
  ฉนวนกันความร้อนใต้หลังคา ตราช้าง FSO-G CRB-G 1650 -50mm,									!- Name
  Smooth,									!- Roughness
  0.012,									!- Thickness {m}
  0.038,									!- Conductivity {W/m-K}
  16,										!- Density {kg/m3}
  0.96,										!- Specific Heat {J/kg-K}
  0.507,									!- Thermal Absorptance
  0.4,										!- Solar Absorptance
  0.4;										!- Visible Absorptance

OS:Material,
  {9cb4653d-8a87-4f60-857c-34264c77bbc9},	!- Handle
  ฉนวนกันความร้อนใต้หลังคา ตราช้าง FSO-G-CRB-G 2425 -25mm,									!- Name
  Smooth,									!- Roughness
  0.012,									!- Thickness {m}
  0.035,									!- Conductivity {W/m-K}
  24,										!- Density {kg/m3}
  0.96,										!- Specific Heat {J/kg-K}
  0.507,									!- Thermal Absorptance
  0.4,										!- Solar Absorptance
  0.4;										!- Visible Absorptance

OS:Material,
  {c899062a-082f-437a-bfe0-528b17dfe6a1},	!- Handle
  ฉนวนกันความร้อนใต้หลังคา ตราช้าง FSO-G-CRB-G 2450 -50mm,									!- Name
  Smooth,									!- Roughness
  0.012,									!- Thickness {m}
  0.035,									!- Conductivity {W/m-K}
  24,										!- Density {kg/m3}
  0.96,										!- Specific Heat {J/kg-K}
  0.507,									!- Thermal Absorptance
  0.4,										!- Solar Absorptance
  0.4;										!- Visible Absorptance

OS:Material,
  {8623b9d5-dd70-4da2-b167-7bc452ea943a},	!- Handle
  ฉนวนกันความร้อนใต้หลังคา ตราช้าง FSO-G-CRB-G 3225 -25mm,									!- Name
  Smooth,									!- Roughness
  0.012,									!- Thickness {m}
  0.033,									!- Conductivity {W/m-K}
  32,										!- Density {kg/m3}
  0.96,										!- Specific Heat {J/kg-K}
  0.507,									!- Thermal Absorptance
  0.4,										!- Solar Absorptance
  0.4;										!- Visible Absorptance

OS:Material,
  {c36f53a0-3bed-4cef-bb8a-c40a4413e85c},	!- Handle
  ฉนวนกันความร้อนใต้หลังคา ตราช้าง FSO-G-CRB-G 3250 -50mm,									!- Name
  Smooth,									!- Roughness
  0.012,									!- Thickness {m}
  0.033,									!- Conductivity {W/m-K}
  32,										!- Density {kg/m3}
  0.96,										!- Specific Heat {J/kg-K}
  0.507,									!- Thermal Absorptance
  0.4,										!- Solar Absorptance
  0.4;										!- Visible Absorptance

OS:Material,
  {243247c4-0bce-42f7-af26-397b71911fbf},	!- Handle
  ฉนวนกันความร้อนใต้หลังคา ตราช้าง FSO-G-CRB-G 4825 -25mm,									!- Name
  Smooth,									!- Roughness
  0.012,									!- Thickness {m}
  0.032,									!- Conductivity {W/m-K}
  48,										!- Density {kg/m3}
  0.96,										!- Specific Heat {J/kg-K}
  0.507,									!- Thermal Absorptance
  0.4,										!- Solar Absorptance
  0.4;										!- Visible Absorptance

OS:Material,
  {2be7d608-a5f8-403f-9a40-7ae65940cb0b},	!- Handle
  ฉนวนกันความร้อนใต้หลังคา ตราช้าง FSO-G-CRB-G 4850 -50mm,									!- Name
  Smooth,									!- Roughness
  0.012,									!- Thickness {m}
  0.032,									!- Conductivity {W/m-K}
  48,										!- Density {kg/m3}
  0.96,										!- Specific Heat {J/kg-K}
  0.507,									!- Thermal Absorptance
  0.4,										!- Solar Absorptance
  0.4;										!- Visible Absorptance

OS:Material,
  {447b0417-05e2-4905-ae9f-f3c8aaf008ec},	!- Handle
  ฉนวนกันความร้อนใต้หลังคา ตราช้าง SUPER COOL-G 1250 -50mm,									!- Name
  Smooth,									!- Roughness
  0.012,									!- Thickness {m}
  0.042,									!- Conductivity {W/m-K}
  12,										!- Density {kg/m3}
  0.96,										!- Specific Heat {J/kg-K}
  0.507,									!- Thermal Absorptance
  0.4,										!- Solar Absorptance
  0.4;										!- Visible Absorptance

OS:Material,
  {5e842141-2738-4f84-97ce-5339df85744a},	!- Handle
  ฉนวนกันความร้อนใต้หลังคา ตราช้าง SUPER COOL-G 1275 -75mm,									!- Name
  Smooth,									!- Roughness
  0.012,									!- Thickness {m}
  0.042,									!- Conductivity {W/m-K}
  12,										!- Density {kg/m3}
  0.96,										!- Specific Heat {J/kg-K}
  0.507,									!- Thermal Absorptance
  0.4,										!- Solar Absorptance
  0.4;										!- Visible Absorptance

OS:Material,
  {68fed2e1-82b8-4472-aacc-0f4908de58eb},	!- Handle
  ฉนวนกันความร้อนใต้หลังคา ตราช้าง SUPER COOL-G 1625 -25mm,									!- Name
  Smooth,									!- Roughness
  0.012,									!- Thickness {m}
  0.038,									!- Conductivity {W/m-K}
  12,										!- Density {kg/m3}
  0.96,										!- Specific Heat {J/kg-K}
  0.507,									!- Thermal Absorptance
  0.4,										!- Solar Absorptance
  0.4;										!- Visible Absorptance

OS:Material,
  {1dd03ede-2d7d-444f-9d97-79ef9afb2945},	!- Handle
  ฉนวนกันความร้อนใต้หลังคา ตราช้าง SUPER COOL-G 1650 -50mm,									!- Name
  Smooth,									!- Roughness
  0.012,									!- Thickness {m}
  0.038,									!- Conductivity {W/m-K}
  12,										!- Density {kg/m3}
  0.96,										!- Specific Heat {J/kg-K}
  0.507,									!- Thermal Absorptance
  0.4,										!- Solar Absorptance
  0.4;										!- Visible Absorptance

OS:Material,
  {58b487af-00e6-41ba-8104-30f4ec77b3c9},	!- Handle
  ฉนวนกันความร้อนใต้หลังคา ตราช้าง SUPER COOL-G 2425 -25mm,									!- Name
  Smooth,									!- Roughness
  0.012,									!- Thickness {m}
  0.035,									!- Conductivity {W/m-K}
  24,										!- Density {kg/m3}
  0.96,										!- Specific Heat {J/kg-K}
  0.507,									!- Thermal Absorptance
  0.4,										!- Solar Absorptance
  0.4;										!- Visible Absorptance

OS:Material,
  {bf59cd34-a8b4-4239-bbdf-03e3d8e04a9a},	!- Handle
  ฉนวนกันความร้อนใต้หลังคา ตราช้าง SUPER COOL-G 2450 -50mm,									!- Name
  Smooth,									!- Roughness
  0.012,									!- Thickness {m}
  0.035,									!- Conductivity {W/m-K}
  24,										!- Density {kg/m3}
  0.96,										!- Specific Heat {J/kg-K}
  0.507,									!- Thermal Absorptance
  0.4,										!- Solar Absorptance
  0.4;										!- Visible Absorptance

OS:Material,
  {e0ba93dc-52e9-4072-933e-6911b52b6edf},	!- Handle
  ฉนวนชนิดโฟมโพลีสไตรีน ความหนาแน่น 16 กก./ลบ.ม.,									!- Name
  Smooth,									!- Roughness
  0.012,									!- Thickness {m}
  0.037,									!- Conductivity {W/m-K}
  16,										!- Density {kg/m3}
  1.21,										!- Specific Heat {J/kg-K}
  0.507,									!- Thermal Absorptance
  0.4,										!- Solar Absorptance
  0.4;										!- Visible Absorptance

OS:Material,
  {2693d6b1-00e8-46eb-a88b-19b3dab69f39},	!- Handle
  ฉนวนชนิดโฟมโพลีสไตรีน ความหนาแน่น 20 กก./ลบ.ม.,									!- Name
  Smooth,									!- Roughness
  0.012,									!- Thickness {m}
  0.036,									!- Conductivity {W/m-K}
  20,										!- Density {kg/m3}
  1.21,										!- Specific Heat {J/kg-K}
  0.507,									!- Thermal Absorptance
  0.4,										!- Solar Absorptance
  0.4;										!- Visible Absorptance

OS:Material,
  {cc85684a-9ddc-4e3f-93e2-69eb2941d861},	!- Handle
  ฉนวนชนิดโฟมโพลีสไตรีน ความหนาแน่น 24 กก./ลบ.ม.,									!- Name
  Smooth,									!- Roughness
  0.012,									!- Thickness {m}
  0.035,									!- Conductivity {W/m-K}
  24,										!- Density {kg/m3}
  1.21,										!- Specific Heat {J/kg-K}
  0.507,									!- Thermal Absorptance
  0.4,										!- Solar Absorptance
  0.4;										!- Visible Absorptance

OS:Material,
  {568812e5-e79b-4edf-b2e7-17a797bfb4f9},	!- Handle
  ฉนวนชนิดโฟมโพลีสไตรีน ความหนาแน่น 25 กก./ลบ.ม.,									!- Name
  Smooth,									!- Roughness
  0.012,									!- Thickness {m}
  0.035,									!- Conductivity {W/m-K}
  25,										!- Density {kg/m3}
  1.21,										!- Specific Heat {J/kg-K}
  0.507,									!- Thermal Absorptance
  0.4,										!- Solar Absorptance
  0.4;										!- Visible Absorptance

OS:Material,
  {8dd7103a-0752-4edc-8169-f9f82a2928fe},	!- Handle
  ฉนวนชนิดโฟมโพลีสไตรีน ความหนาแน่น 26 กก./ลบ.ม.,									!- Name
  Smooth,									!- Roughness
  0.012,									!- Thickness {m}
  0.035,									!- Conductivity {W/m-K}
  26,										!- Density {kg/m3}
  1.21,										!- Specific Heat {J/kg-K}
  0.507,									!- Thermal Absorptance
  0.4,										!- Solar Absorptance
  0.4;										!- Visible Absorptance

OS:Material,
  {e2aba724-3b12-47d9-8288-2e2094ad5e81},	!- Handle
  ฉนวนชนิดโฟมโพลีสไตรีน ความหนาแน่น 27 กก./ลบ.ม.,									!- Name
  Smooth,									!- Roughness
  0.012,									!- Thickness {m}
  0.035,									!- Conductivity {W/m-K}
  27,										!- Density {kg/m3}
  1.21,										!- Specific Heat {J/kg-K}
  0.507,									!- Thermal Absorptance
  0.4,										!- Solar Absorptance
  0.4;										!- Visible Absorptance

OS:Material,
  {c640c312-ffbe-407d-a6c4-46644750dd6f},	!- Handle
  ฉนวนชนิดโฟมโพลีสไตรีน ความหนาแน่น 28 กก./ลบ.ม.,									!- Name
  Smooth,									!- Roughness
  0.012,									!- Thickness {m}
  0.035,									!- Conductivity {W/m-K}
  28,										!- Density {kg/m3}
  1.21,										!- Specific Heat {J/kg-K}
  0.507,									!- Thermal Absorptance
  0.4,										!- Solar Absorptance
  0.4;										!- Visible Absorptance

OS:Material,
  {d8062948-6c67-4d4d-b721-6d1950649675},	!- Handle
  ฉนวนชนิดโฟมโพลีสไตรีน ความหนาแน่น 29 กก./ลบ.ม.,									!- Name
  Smooth,									!- Roughness
  0.012,									!- Thickness {m}
  0.035,									!- Conductivity {W/m-K}
  29,										!- Density {kg/m3}
  1.21,										!- Specific Heat {J/kg-K}
  0.507,									!- Thermal Absorptance
  0.4,										!- Solar Absorptance
  0.4;										!- Visible Absorptance

OS:Material,
  {2834e91e-9b76-466d-b518-387098a74b8a},	!- Handle
  ฉนวนชนิดโฟมโพลีสไตรีน ความหนาแน่น 30 กก./ลบ.ม.,									!- Name
  Smooth,									!- Roughness
  0.012,									!- Thickness {m}
  0.035,									!- Conductivity {W/m-K}
  30,										!- Density {kg/m3}
  1.21,										!- Specific Heat {J/kg-K}
  0.507,									!- Thermal Absorptance
  0.4,										!- Solar Absorptance
  0.4;										!- Visible Absorptance

OS:Material,
  {e7b77deb-e77c-4162-80e8-0e06bc945eb1},	!- Handle
  ฉนวนชนิดโฟมโพลีสไตรีน ความหนาแน่น 31 กก./ลบ.ม.,									!- Name
  Smooth,									!- Roughness
  0.012,									!- Thickness {m}
  0.035,									!- Conductivity {W/m-K}
  31,										!- Density {kg/m3}
  1.21,										!- Specific Heat {J/kg-K}
  0.507,									!- Thermal Absorptance
  0.4,										!- Solar Absorptance
  0.4;										!- Visible Absorptance

OS:Material,
  {a3f9ef52-7e35-4d80-91a9-8d9aa50ced62},	!- Handle
  ฉนวนชนิดโฟมโพลีสไตรีน ความหนาแน่น 32 กก./ลบ.ม.,									!- Name
  Smooth,									!- Roughness
  0.012,									!- Thickness {m}
  0.035,									!- Conductivity {W/m-K}
  32,										!- Density {kg/m3}
  1.21,										!- Specific Heat {J/kg-K}
  0.507,									!- Thermal Absorptance
  0.4,										!- Solar Absorptance
  0.4;										!- Visible Absorptance

OS:Material,
  {d3986c10-10bc-40cb-bf04-20696ceb8f34},	!- Handle
  ฉนวนชนิดโฟมโพลีสไตรีน ความหนาแน่น 9 กก./ลบ.ม.,									!- Name
  Smooth,									!- Roughness
  0.012,									!- Thickness {m}
  0.047,									!- Conductivity {W/m-K}
  9,										!- Density {kg/m3}
  1.21,										!- Specific Heat {J/kg-K}
  0.507,									!- Thermal Absorptance
  0.4,										!- Solar Absorptance
  0.4;										!- Visible Absorptance

OS:Material,
  {19a823ec-24fb-4ea3-a90f-a0c7b58d8dc3},	!- Handle
  ฉนวนใยแก้ว,									!- Name
  Smooth,									!- Roughness
  0.012,									!- Thickness {m}
  0.033,									!- Conductivity {W/m-K}
  32,										!- Density {kg/m3}
  0.96,										!- Specific Heat {J/kg-K}
  0.507,									!- Thermal Absorptance
  0.4,										!- Solar Absorptance
  0.4;										!- Visible Absorptance

OS:Material,
  {0ee6b670-4d72-4d6a-a917-4559014147f5},	!- Handle
  ฉนวนใยแก้ว ความหนาแน่น 10 กก./ลบ.ม.,									!- Name
  Smooth,									!- Roughness
  0.012,									!- Thickness {m}
  0.046,									!- Conductivity {W/m-K}
  10,										!- Density {kg/m3}
  0.96,										!- Specific Heat {J/kg-K}
  0.507,									!- Thermal Absorptance
  0.4,										!- Solar Absorptance
  0.4;										!- Visible Absorptance

OS:Material,
  {25135e39-9751-44a2-9983-66bdbdac36d0},	!- Handle
  ฉนวนใยแก้ว ความหนาแน่น 12 กก./ลบ.ม.,									!- Name
  Smooth,									!- Roughness
  0.012,									!- Thickness {m}
  0.042,									!- Conductivity {W/m-K}
  12,										!- Density {kg/m3}
  0.96,										!- Specific Heat {J/kg-K}
  0.507,									!- Thermal Absorptance
  0.4,										!- Solar Absorptance
  0.4;										!- Visible Absorptance

OS:Material,
  {b3f05cf8-7c50-4aa4-bc60-ccfd249c3051},	!- Handle
  ฉนวนใยแก้ว ความหนาแน่น 16 กก./ลบ.ม.,									!- Name
  Smooth,									!- Roughness
  0.012,									!- Thickness {m}
  0.038,									!- Conductivity {W/m-K}
  16,										!- Density {kg/m3}
  0.96,										!- Specific Heat {J/kg-K}
  0.507,									!- Thermal Absorptance
  0.4,										!- Solar Absorptance
  0.4;										!- Visible Absorptance

OS:Material,
  {add2590f-6a80-4264-940e-ba919b29a1cf},	!- Handle
  ฉนวนใยแก้ว ความหนาแน่น 24 กก./ลบ.ม.,									!- Name
  Smooth,									!- Roughness
  0.012,									!- Thickness {m}
  0.035,									!- Conductivity {W/m-K}
  24,										!- Density {kg/m3}
  0.96,										!- Specific Heat {J/kg-K}
  0.507,									!- Thermal Absorptance
  0.4,										!- Solar Absorptance
  0.4;										!- Visible Absorptance

OS:Material,
  {ca892442-0b66-462d-b20d-bbcf852dfd8e},	!- Handle
  ฉนวนใยแก้ว ความหนาแน่น 32 กก./ลบ.ม.,									!- Name
  Smooth,									!- Roughness
  0.012,									!- Thickness {m}
  0.033,									!- Conductivity {W/m-K}
  32,										!- Density {kg/m3}
  0.96,										!- Specific Heat {J/kg-K}
  0.507,									!- Thermal Absorptance
  0.4,										!- Solar Absorptance
  0.4;										!- Visible Absorptance

OS:Material,
  {6acacc85-e762-46fa-9859-765da5aeb546},	!- Handle
  ฉนวนใยแก้ว ความหนาแน่น 33 กก./ลบ.ม.,									!- Name
  Smooth,									!- Roughness
  0.012,									!- Thickness {m}
  0.033,									!- Conductivity {W/m-K}
  33,										!- Density {kg/m3}
  0.96,										!- Specific Heat {J/kg-K}
  0.507,									!- Thermal Absorptance
  0.4,										!- Solar Absorptance
  0.4;										!- Visible Absorptance

OS:Material,
  {35abf29e-0ab6-46c4-8864-c473fac4f929},	!- Handle
  ฉนวนใยแก้ว ความหนาแน่น 34 กก./ลบ.ม.,									!- Name
  Smooth,									!- Roughness
  0.012,									!- Thickness {m}
  0.033,									!- Conductivity {W/m-K}
  34,										!- Density {kg/m3}
  0.96,										!- Specific Heat {J/kg-K}
  0.507,									!- Thermal Absorptance
  0.4,										!- Solar Absorptance
  0.4;										!- Visible Absorptance

OS:Material,
  {00221b38-3e50-4246-b6cf-3690e2fec4a6},	!- Handle
  ฉนวนใยแก้ว ความหนาแน่น 35 กก./ลบ.ม.,									!- Name
  Smooth,									!- Roughness
  0.012,									!- Thickness {m}
  0.033,									!- Conductivity {W/m-K}
  35,										!- Density {kg/m3}